# generated using pymatgen
data_Mn3ZnFe13O11
_symmetry_space_group_name_H-M   'P 1'
_cell_length_a   16.46144716
_cell_length_b   16.46144716
_cell_length_c   8.23072358
_cell_angle_alpha   90.00000000
_cell_angle_beta   90.00000000
_cell_angle_gamma   90.00000000
_symmetry_Int_Tables_number   1
_chemical_formula_structural   Mn3ZnFe13O11
_chemical_formula_sum   'Mn24 Zn8 Fe104 O88'
_cell_volume   2230.35524177
_cell_formula_units_Z   8
loop_
 _symmetry_equiv_pos_site_id
 _symmetry_equiv_pos_as_xyz
  1  'x, y, z'
loop_
 _atom_site_type_symbol
 _atom_site_label
 _atom_site_symmetry_multiplicity
 _atom_site_fract_x
 _atom_site_fract_y
 _atom_site_fract_z
 _atom_site_occupancy
  Mn2+  Mn0  1  0.25000000  0.00000000  0.00000000  1.0
  Mn2+  Mn1  1  0.25000000  0.50000000  0.00000000  1.0
  Mn2+  Mn2  1  0.75000000  0.00000000  0.00000000  1.0
  Mn2+  Mn3  1  0.75000000  0.50000000  0.00000000  1.0
  Mn2+  Mn4  1  0.12500000  0.12500000  0.75000000  1.0
  Fe  Mn2+  1  0.12500000  0.62500000  0.75000000  1.0
  Fe  Mn2+  1  0.62500000  0.12500000  0.75000000  1.0
  Mn2+  Mn7  1  0.62500000  0.62500000  0.75000000  1.0
  Mn2+  Mn8  1  0.25000000  0.25000000  0.50000000  1.0
  Mn2+  Mn9  1  0.25000000  0.75000000  0.50000000  1.0
  Mn2+  Mn10  1  0.75000000  0.25000000  0.50000000  1.0
  Mn2+  Mn11  1  0.75000000  0.75000000  0.50000000  1.0
  Fe  Mn2+  1  0.12500000  0.37500000  0.25000000  1.0
  Mn2+  Mn13  1  0.12500000  0.87500000  0.25000000  1.0
  Mn2+  Mn14  1  0.62500000  0.37500000  0.25000000  1.0
  Fe  Mn2+  1  0.62500000  0.87500000  0.25000000  1.0
  Mn  Mn2+  1  0.00000000  0.00000000  0.50000000  1.0
  Mn2+  Mn17  1  0.00000000  0.50000000  0.50000000  1.0
  Mn2+  Mn18  1  0.50000000  0.00000000  0.50000000  1.0
  Zn  Mn2+  1  0.50000000  0.50000000  0.50000000  1.0
  Fe  Mn2+  1  0.37500000  0.12500000  0.25000000  1.0
  Mn2+  Mn21  1  0.37500000  0.62500000  0.25000000  1.0
  Mn2+  Mn22  1  0.87500000  0.12500000  0.25000000  1.0
  Fe  Mn2+  1  0.87500000  0.62500000  0.25000000  1.0
  Mn2+  Mn24  1  0.00000000  0.25000000  0.00000000  1.0
  Mn2+  Mn25  1  0.00000000  0.75000000  0.00000000  1.0
  Mn2+  Mn26  1  0.50000000  0.25000000  0.00000000  1.0
  Mn2+  Mn27  1  0.50000000  0.75000000  0.00000000  1.0
  Mn2+  Mn28  1  0.37500000  0.37500000  0.75000000  1.0
  Fe  Mn2+  1  0.37500000  0.87500000  0.75000000  1.0
  Fe  Mn2+  1  0.87500000  0.37500000  0.75000000  1.0
  Mn2+  Mn31  1  0.87500000  0.87500000  0.75000000  1.0
  Fe3+  Fe32  1  0.06250000  0.31250000  0.62500000  1.0
  Fe3+  Fe33  1  0.06250000  0.81250000  0.62500000  1.0
  Fe3+  Fe34  1  0.56250000  0.31250000  0.62500000  1.0
  Fe3+  Fe35  1  0.56250000  0.81250000  0.62500000  1.0
  Fe3+  Fe36  1  0.06250000  0.43750000  0.87500000  1.0
  Fe  Fe3+  1  0.06250000  0.93750000  0.87500000  1.0
  Fe  Fe3+  1  0.56250000  0.43750000  0.87500000  1.0
  Fe3+  Fe39  1  0.56250000  0.93750000  0.87500000  1.0
  Fe3+  Fe40  1  0.18750000  0.43750000  0.62500000  1.0
  Fe3+  Fe41  1  0.18750000  0.93750000  0.62500000  1.0
  Fe3+  Fe42  1  0.68750000  0.43750000  0.62500000  1.0
  Fe3+  Fe43  1  0.68750000  0.93750000  0.62500000  1.0
  Fe3+  Fe44  1  0.18750000  0.31250000  0.87500000  1.0
  Fe  Fe3+  1  0.18750000  0.81250000  0.87500000  1.0
  Fe  Fe3+  1  0.68750000  0.31250000  0.87500000  1.0
  Fe3+  Fe47  1  0.68750000  0.81250000  0.87500000  1.0
  Fe  Fe3+  1  0.06250000  0.06250000  0.12500000  1.0
  Fe3+  Fe49  1  0.06250000  0.56250000  0.12500000  1.0
  Fe3+  Fe50  1  0.56250000  0.06250000  0.12500000  1.0
  Fe  Fe3+  1  0.56250000  0.56250000  0.12500000  1.0
  Fe3+  Fe52  1  0.06250000  0.18750000  0.37500000  1.0
  Fe3+  Fe53  1  0.06250000  0.68750000  0.37500000  1.0
  Fe3+  Fe54  1  0.56250000  0.18750000  0.37500000  1.0
  Fe3+  Fe55  1  0.56250000  0.68750000  0.37500000  1.0
  Fe  Fe3+  1  0.18750000  0.18750000  0.12500000  1.0
  Fe3+  Fe57  1  0.18750000  0.68750000  0.12500000  1.0
  Fe3+  Fe58  1  0.68750000  0.18750000  0.12500000  1.0
  Fe  Fe3+  1  0.68750000  0.68750000  0.12500000  1.0
  Fe3+  Fe60  1  0.18750000  0.06250000  0.37500000  1.0
  Fe3+  Fe61  1  0.18750000  0.56250000  0.37500000  1.0
  Fe3+  Fe62  1  0.68750000  0.06250000  0.37500000  1.0
  Fe3+  Fe63  1  0.68750000  0.56250000  0.37500000  1.0
  Fe  Fe3+  1  0.31250000  0.31250000  0.12500000  1.0
  Fe3+  Fe65  1  0.31250000  0.81250000  0.12500000  1.0
  Fe3+  Fe66  1  0.81250000  0.31250000  0.12500000  1.0
  Fe  Fe3+  1  0.81250000  0.81250000  0.12500000  1.0
  Fe3+  Fe68  1  0.31250000  0.43750000  0.37500000  1.0
  Fe3+  Fe69  1  0.31250000  0.93750000  0.37500000  1.0
  Fe3+  Fe70  1  0.81250000  0.43750000  0.37500000  1.0
  Fe3+  Fe71  1  0.81250000  0.93750000  0.37500000  1.0
  Fe  Fe3+  1  0.43750000  0.43750000  0.12500000  1.0
  Fe3+  Fe73  1  0.43750000  0.93750000  0.12500000  1.0
  Fe3+  Fe74  1  0.93750000  0.43750000  0.12500000  1.0
  Fe  Fe3+  1  0.93750000  0.93750000  0.12500000  1.0
  Fe3+  Fe76  1  0.43750000  0.31250000  0.37500000  1.0
  Fe3+  Fe77  1  0.43750000  0.81250000  0.37500000  1.0
  Fe3+  Fe78  1  0.93750000  0.31250000  0.37500000  1.0
  Fe3+  Fe79  1  0.93750000  0.81250000  0.37500000  1.0
  Fe3+  Fe80  1  0.31250000  0.06250000  0.62500000  1.0
  Fe3+  Fe81  1  0.31250000  0.56250000  0.62500000  1.0
  Fe3+  Fe82  1  0.81250000  0.06250000  0.62500000  1.0
  Fe3+  Fe83  1  0.81250000  0.56250000  0.62500000  1.0
  Fe3+  Fe84  1  0.31250000  0.18750000  0.87500000  1.0
  Fe  Fe3+  1  0.31250000  0.68750000  0.87500000  1.0
  Fe  Fe3+  1  0.81250000  0.18750000  0.87500000  1.0
  Fe3+  Fe87  1  0.81250000  0.68750000  0.87500000  1.0
  Fe3+  Fe88  1  0.43750000  0.18750000  0.62500000  1.0
  Fe3+  Fe89  1  0.43750000  0.68750000  0.62500000  1.0
  Fe3+  Fe90  1  0.93750000  0.18750000  0.62500000  1.0
  Fe3+  Fe91  1  0.93750000  0.68750000  0.62500000  1.0
  Fe3+  Fe92  1  0.43750000  0.06250000  0.87500000  1.0
  Fe  Fe3+  1  0.43750000  0.56250000  0.87500000  1.0
  Fe  Fe3+  1  0.93750000  0.06250000  0.87500000  1.0
  Fe3+  Fe95  1  0.93750000  0.56250000  0.87500000  1.0
  O2-  O96  1  0.05540349  0.05540349  0.88919301  1.0
  Zn  O2-  1  0.05540349  0.55540349  0.88919301  1.0
  Zn  O2-  1  0.55540349  0.05540349  0.88919301  1.0
  O2-  O99  1  0.55540349  0.55540349  0.88919301  1.0
  O2-  O100  1  0.06959651  0.43040349  0.63919301  1.0
  O2-  O101  1  0.06959651  0.93040349  0.63919301  1.0
  O2-  O102  1  0.56959651  0.43040349  0.63919301  1.0
  O2-  O103  1  0.56959651  0.93040349  0.63919301  1.0
  O2-  O104  1  0.19459651  0.19459651  0.88919301  1.0
  O2-  O105  1  0.19459651  0.69459651  0.88919301  1.0
  O2-  O106  1  0.69459651  0.19459651  0.88919301  1.0
  O2-  O107  1  0.69459651  0.69459651  0.88919301  1.0
  O2-  O108  1  0.43040349  0.06959651  0.63919301  1.0
  O2-  O109  1  0.43040349  0.56959651  0.63919301  1.0
  O2-  O110  1  0.93040349  0.06959651  0.63919301  1.0
  O2-  O111  1  0.93040349  0.56959651  0.63919301  1.0
  O2-  O112  1  0.05540349  0.19459651  0.61080699  1.0
  Fe  O2-  1  0.05540349  0.69459651  0.61080699  1.0
  Fe  O2-  1  0.55540349  0.19459651  0.61080699  1.0
  O2-  O115  1  0.55540349  0.69459651  0.61080699  1.0
  O2-  O116  1  0.31959651  0.06959651  0.86080699  1.0
  Fe  O2-  1  0.31959651  0.56959651  0.86080699  1.0
  Fe  O2-  1  0.81959651  0.06959651  0.86080699  1.0
  O2-  O119  1  0.81959651  0.56959651  0.86080699  1.0
  O2-  O120  1  0.19459651  0.05540349  0.61080699  1.0
  Fe  O2-  1  0.19459651  0.55540349  0.61080699  1.0
  Fe  O2-  1  0.69459651  0.05540349  0.61080699  1.0
  O2-  O123  1  0.69459651  0.55540349  0.61080699  1.0
  O2-  O124  1  0.18040350  0.43040349  0.86080699  1.0
  Fe  O2-  1  0.18040350  0.93040349  0.86080699  1.0
  Fe  O2-  1  0.68040349  0.43040349  0.86080699  1.0
  O2-  O127  1  0.68040350  0.93040349  0.86080699  1.0
  Fe  O2-  1  0.05540349  0.30540349  0.38919301  1.0
  O2-  O129  1  0.05540349  0.80540349  0.38919301  1.0
  O2-  O130  1  0.55540349  0.30540349  0.38919301  1.0
  Fe  O2-  1  0.55540349  0.80540349  0.38919301  1.0
  Fe  O2-  1  0.06959651  0.18040349  0.13919301  1.0
  O2-  O133  1  0.06959651  0.68040349  0.13919301  1.0
  O2-  O134  1  0.56959651  0.18040349  0.13919301  1.0
  Fe  O2-  1  0.56959651  0.68040349  0.13919301  1.0
  Fe  O2-  1  0.19459651  0.44459651  0.38919301  1.0
  O2-  O137  1  0.19459651  0.94459651  0.38919301  1.0
  O2-  O138  1  0.69459651  0.44459651  0.38919301  1.0
  Fe  O2-  1  0.69459651  0.94459651  0.38919301  1.0
  Fe  O2-  1  0.43040349  0.31959651  0.13919301  1.0
  O2-  O141  1  0.43040349  0.81959651  0.13919301  1.0
  O2-  O142  1  0.93040349  0.31959651  0.13919301  1.0
  Fe  O2-  1  0.93040349  0.81959651  0.13919301  1.0
  Mn  O2-  1  0.05540349  0.44459651  0.11080699  1.0
  O2-  O145  1  0.05540349  0.94459651  0.11080699  1.0
  O2-  O146  1  0.55540349  0.44459651  0.11080699  1.0
  Zn  O2-  1  0.55540350  0.94459651  0.11080699  1.0
  O2-  O148  1  0.31959651  0.31959651  0.36080699  1.0
  O2-  O149  1  0.31959651  0.81959651  0.36080699  1.0
  O2-  O150  1  0.81959651  0.31959651  0.36080699  1.0
  O2-  O151  1  0.81959651  0.81959651  0.36080699  1.0
  O2-  O152  1  0.19459651  0.30540349  0.11080699  1.0
  O2-  O153  1  0.19459651  0.80540349  0.11080699  1.0
  O2-  O154  1  0.69459651  0.30540349  0.11080699  1.0
  O2-  O155  1  0.69459651  0.80540349  0.11080699  1.0
  O2-  O156  1  0.18040350  0.18040349  0.36080699  1.0
  O2-  O157  1  0.18040350  0.68040349  0.36080699  1.0
  O2-  O158  1  0.68040349  0.18040349  0.36080699  1.0
  O2-  O159  1  0.68040349  0.68040349  0.36080699  1.0
  Fe  O2-  1  0.30540349  0.05540349  0.38919301  1.0
  O2-  O161  1  0.30540349  0.55540349  0.38919301  1.0
  O2-  O162  1  0.80540349  0.05540349  0.38919301  1.0
  Fe  O2-  1  0.80540349  0.55540349  0.38919301  1.0
  Fe  O2-  1  0.31959651  0.43040349  0.13919301  1.0
  O2-  O165  1  0.31959651  0.93040349  0.13919301  1.0
  O2-  O166  1  0.81959651  0.43040349  0.13919301  1.0
  Fe  O2-  1  0.81959651  0.93040349  0.13919301  1.0
  Fe  O2-  1  0.44459651  0.19459651  0.38919301  1.0
  O2-  O169  1  0.44459651  0.69459651  0.38919301  1.0
  O2-  O170  1  0.94459651  0.19459651  0.38919301  1.0
  Fe  O2-  1  0.94459651  0.69459651  0.38919301  1.0
  Fe  O2-  1  0.18040349  0.06959651  0.13919301  1.0
  O2-  O173  1  0.18040349  0.56959651  0.13919301  1.0
  O2-  O174  1  0.68040349  0.06959651  0.13919301  1.0
  Fe  O2-  1  0.68040349  0.56959651  0.13919301  1.0
  O2-  O176  1  0.30540349  0.19459651  0.11080699  1.0
  O2-  O177  1  0.30540349  0.69459651  0.11080699  1.0
  O2-  O178  1  0.80540349  0.19459651  0.11080699  1.0
  O2-  O179  1  0.80540349  0.69459651  0.11080699  1.0
  O2-  O180  1  0.06959651  0.06959651  0.36080699  1.0
  O2-  O181  1  0.06959651  0.56959651  0.36080699  1.0
  O2-  O182  1  0.56959651  0.06959651  0.36080699  1.0
  O2-  O183  1  0.56959651  0.56959651  0.36080699  1.0
  Zn  O2-  1  0.44459651  0.05540349  0.11080699  1.0
  O2-  O185  1  0.44459651  0.55540349  0.11080699  1.0
  O2-  O186  1  0.94459651  0.05540349  0.11080699  1.0
  Zn  O2-  1  0.94459651  0.55540349  0.11080699  1.0
  O2-  O188  1  0.43040350  0.43040349  0.36080699  1.0
  O2-  O189  1  0.43040350  0.93040349  0.36080699  1.0
  O2-  O190  1  0.93040349  0.43040349  0.36080699  1.0
  O2-  O191  1  0.93040350  0.93040349  0.36080699  1.0
  O2-  O192  1  0.30540349  0.30540349  0.88919301  1.0
  O2-  O193  1  0.30540349  0.80540349  0.88919301  1.0
  O2-  O194  1  0.80540349  0.30540349  0.88919301  1.0
  O2-  O195  1  0.80540349  0.80540349  0.88919301  1.0
  O2-  O196  1  0.31959651  0.18040349  0.63919301  1.0
  O2-  O197  1  0.31959651  0.68040349  0.63919301  1.0
  O2-  O198  1  0.81959651  0.18040349  0.63919301  1.0
  O2-  O199  1  0.81959651  0.68040349  0.63919301  1.0
  O2-  O200  1  0.44459650  0.44459651  0.88919301  1.0
  Zn  O2-  1  0.44459650  0.94459651  0.88919301  1.0
  Zn  O2-  1  0.94459650  0.44459651  0.88919301  1.0
  O2-  O203  1  0.94459651  0.94459651  0.88919301  1.0
  O2-  O204  1  0.18040349  0.31959651  0.63919301  1.0
  O2-  O205  1  0.18040349  0.81959651  0.63919301  1.0
  O2-  O206  1  0.68040349  0.31959651  0.63919301  1.0
  O2-  O207  1  0.68040349  0.81959651  0.63919301  1.0
  O2-  O208  1  0.30540349  0.44459651  0.61080699  1.0
  Fe  O2-  1  0.30540349  0.94459651  0.61080699  1.0
  Fe  O2-  1  0.80540349  0.44459651  0.61080699  1.0
  O2-  O211  1  0.80540350  0.94459651  0.61080699  1.0
  O2-  O212  1  0.06959651  0.31959651  0.86080699  1.0
  Fe  O2-  1  0.06959651  0.81959651  0.86080699  1.0
  Fe  O2-  1  0.56959651  0.31959651  0.86080699  1.0
  O2-  O215  1  0.56959651  0.81959651  0.86080699  1.0
  O2-  O216  1  0.44459651  0.30540349  0.61080699  1.0
  Fe  O2-  1  0.44459651  0.80540349  0.61080699  1.0
  Fe  O2-  1  0.94459651  0.30540349  0.61080699  1.0
  O2-  O219  1  0.94459651  0.80540349  0.61080699  1.0
  O2-  O220  1  0.43040350  0.18040349  0.86080699  1.0
  Fe  O2-  1  0.43040350  0.68040349  0.86080699  1.0
  Fe  O2-  1  0.93040349  0.18040349  0.86080699  1.0
  O2-  O223  1  0.93040349  0.68040349  0.86080699  1.0
