data_image0
_chemical_formula_structural       LiBOLiO2BGeO3
_chemical_formula_sum              "Li2 B2 O6 Ge1"
_cell_length_a       4.739873124590961
_cell_length_b       4.736400664858323
_cell_length_c       5.849663257598877
_cell_angle_alpha    90.04546424438327
_cell_angle_beta     89.9836851816862
_cell_angle_gamma    120.03431679700726

_space_group_name_H-M_alt    "P 1"
_space_group_IT_number       1

loop_
  _space_group_symop_operation_xyz
  'x, y, z'

loop_
  _atom_site_type_symbol
  _atom_site_label
  _atom_site_symmetry_multiplicity
  _atom_site_fract_x
  _atom_site_fract_y
  _atom_site_fract_z
  _atom_site_occupancy
  Li  Li1       1.0  0.039914507418870926  0.011133993975818157  0.19985559582710266  1.0000
  B   B1        1.0  0.7069116234779358  0.34500575065612793  0.3049534857273102  1.0000
  O   O1        1.0  0.017422644421458244  0.3853982090950012  0.2959370017051697  1.0000
  Li  Li2       1.0  0.7059425711631775  0.34524086117744446  0.7805083394050598  1.0000
  O   O2        1.0  0.436633437871933  0.03477896749973297  0.2954939901828766  1.0000
  O   O3        1.0  0.308610200881958  0.32182055711746216  0.6848533153533936  1.0000
  B   B2        1.0  0.03894970566034317  0.011476113460958004  0.675848126411438  1.0000
  Ge  Ge1       1.0  0.37312018871307373  0.6783913373947144  0.4900214374065399  1.0000
  O   O4        1.0  0.7291917204856873  0.971701443195343  0.6839584708213806  1.0000
  O   O5        1.0  0.6662050485610962  0.615807056427002  0.2966631054878235  1.0000
  O   O6        1.0  0.07934632152318954  0.7406913638114929  0.6831464171409607  1.0000
