data_image0
_chemical_formula_structural       MgF3
_chemical_formula_sum              "Mg1 F3"
_cell_length_a       3.9537553799090657
_cell_length_b       3.9593823288821652
_cell_length_c       3.956932783126831
_cell_angle_alpha    89.97877427582308
_cell_angle_beta     89.93706231180788
_cell_angle_gamma    89.93262268438515

_space_group_name_H-M_alt    "P 1"
_space_group_IT_number       1

loop_
  _space_group_symop_operation_xyz
  'x, y, z'

loop_
  _atom_site_type_symbol
  _atom_site_label
  _atom_site_symmetry_multiplicity
  _atom_site_fract_x
  _atom_site_fract_y
  _atom_site_fract_z
  _atom_site_occupancy
  Mg  Mg1       1.0  0.988366961479187  0.08887563645839691  0.827662765979767  1.0000
  F   F1        1.0  0.9880465269088745  0.5884668827056885  0.8272635936737062  1.0000
  F   F2        1.0  0.4883211553096771  0.08846700191497803  0.8275865316390992  1.0000
  F   F3        1.0  0.9885523915290833  0.08844675123691559  0.32741525769233704  1.0000
