data_image0
_chemical_formula_structural       FNF2
_chemical_formula_sum              "F3 N1"
_cell_length_a       4.085328965186747
_cell_length_b       4.110201144680518
_cell_length_c       4.061927795410156
_cell_angle_alpha    78.74423943784312
_cell_angle_beta     78.57343713361526
_cell_angle_gamma    79.27224057250763

_space_group_name_H-M_alt    "P 1"
_space_group_IT_number       1

loop_
  _space_group_symop_operation_xyz
  'x, y, z'

loop_
  _atom_site_type_symbol
  _atom_site_label
  _atom_site_symmetry_multiplicity
  _atom_site_fract_x
  _atom_site_fract_y
  _atom_site_fract_z
  _atom_site_occupancy
  F   F1        1.0  0.7467568516731262  0.6803500056266785  0.7761760354042053  1.0000
  N   N1        1.0  0.5353070497512817  0.469504863023758  0.9814900755882263  1.0000
  F   F2        1.0  0.7443859577178955  0.2657453119754791  0.18977995216846466  1.0000
  F   F3        1.0  0.33081233501434326  0.6793042421340943  0.19106315076351166  1.0000
