data_image0
_chemical_formula_structural       LiBO2
_chemical_formula_sum              "Li1 B1 O2"
_cell_length_a       2.5358462705509366
_cell_length_b       2.537522747132118
_cell_length_c       4.834870338439941
_cell_angle_alpha    74.73485587416074
_cell_angle_beta     74.73687257058393
_cell_angle_gamma    59.79090714140771

_space_group_name_H-M_alt    "P 1"
_space_group_IT_number       1

loop_
  _space_group_symop_operation_xyz
  'x, y, z'

loop_
  _atom_site_type_symbol
  _atom_site_label
  _atom_site_symmetry_multiplicity
  _atom_site_fract_x
  _atom_site_fract_y
  _atom_site_fract_z
  _atom_site_occupancy
  Li  Li1       1.0  0.8580138683319092  0.7564942240715027  0.14007823169231415  1.0000
  B   B1        1.0  0.3563940227031707  0.25522875785827637  0.6401082277297974  1.0000
  O   O1        1.0  0.6269772052764891  0.5255653262138367  0.8334113955497742  1.0000
  O   O2        1.0  0.08944269269704809  0.9874189496040345  0.4478861093521118  1.0000
