data_image0
_chemical_formula_structural       CsO2COCCsCO2CsO3CsO
_chemical_formula_sum              "Cs4 O9 C3"
_cell_length_a       6.195249419399452
_cell_length_b       6.186506724549109
_cell_length_c       11.447256088256836
_cell_angle_alpha    74.39198094099976
_cell_angle_beta     74.34086399003684
_cell_angle_gamma    59.94202315386101

_space_group_name_H-M_alt    "P 1"
_space_group_IT_number       1

loop_
  _space_group_symop_operation_xyz
  'x, y, z'

loop_
  _atom_site_type_symbol
  _atom_site_label
  _atom_site_symmetry_multiplicity
  _atom_site_fract_x
  _atom_site_fract_y
  _atom_site_fract_z
  _atom_site_occupancy
  Cs  Cs1       1.0  0.12280482798814778  0.571578323841095  0.36522606015205383  1.0000
  O   O1        1.0  0.27599236369132996  0.7240286469459534  0.5479400753974915  1.0000
  O   O2        1.0  0.6345257163047792  0.7243332266807556  0.5465249419212341  1.0000
  C   C1        1.0  0.9569622874259949  0.40644669532775873  0.8590149879455566  1.0000
  O   O3        1.0  0.8344765305519104  0.6515804529190063  0.8574507832527161  1.0000
  C   C2        1.0  0.8521223068237305  0.30078306794166565  0.1767139583826065  1.0000
  Cs  Cs2       1.0  0.2757593393325806  0.7242082953453064  0.902062177658081  1.0000
  C   C3        1.0  0.39505377411842346  0.8437872529029845  0.5463706254959106  1.0000
  O   O4        1.0  0.9746385216712952  0.42352294921875  0.1756172627210617  1.0000
  O   O5        1.0  0.2763531804084778  0.0829201191663742  0.5455668568611145  1.0000
  Cs  Cs3       1.0  0.5471940040588379  0.9967761039733887  0.08862178027629852  1.0000
  O   O6        1.0  0.9753396511077881  0.056707821786403656  0.17496582865715027  1.0000
  O   O7        1.0  0.8350130319595337  0.28435245156288147  0.8583197593688965  1.0000
  O   O8        1.0  0.20178629457950592  0.28342071175575256  0.8585881590843201  1.0000
  Cs  Cs4       1.0  0.6944549083709717  0.1429957002401352  0.648048460483551  1.0000
  O   O9        1.0  0.6081421375274658  0.4230820834636688  0.17573414742946625  1.0000
