data_image0
_chemical_formula_structural       LiF4TaF2
_chemical_formula_sum              "Li1 F6 Ta1"
_cell_length_a       5.347638081401915
_cell_length_b       5.345162512978735
_cell_length_c       5.574869155883789
_cell_angle_alpha    89.8250540485569
_cell_angle_beta     61.282275893935626
_cell_angle_gamma    59.84068690536842

_space_group_name_H-M_alt    "P 1"
_space_group_IT_number       1

loop_
  _space_group_symop_operation_xyz
  'x, y, z'

loop_
  _atom_site_type_symbol
  _atom_site_label
  _atom_site_symmetry_multiplicity
  _atom_site_fract_x
  _atom_site_fract_y
  _atom_site_fract_z
  _atom_site_occupancy
  Li  Li1       1.0  0.888694703578949  0.4738441407680511  0.38403126597404497  1.0000
  F   F1        1.0  0.978748619556427  0.1259513646364212  0.12373184412717819  1.0000
  F   F2        1.0  0.9775664806365967  0.21655696630477905  0.6436380743980409  1.0000
  F   F3        1.0  0.8007460832595825  0.7311720252037048  0.12453735619783401  1.0000
  F   F4        1.0  0.7991833686828614  0.8214891552925109  0.6442421674728391  1.0000
  Ta  Ta1       1.0  0.8890381455421448  0.973454713821411  0.8838428854942322  1.0000
  F   F5        1.0  0.4057748019695282  0.30481937527656555  0.12343678623437881  1.0000
  F   F6        1.0  0.37220069766044617  0.6425123810768127  0.6445580720901488  1.0000
