data_image0
_chemical_formula_structural       KSOFK2OF
_chemical_formula_sum              "K3 S1 O2 F2"
_cell_length_a       5.347707858486938
_cell_length_b       5.344363489814663
_cell_length_c       5.344582557678223
_cell_angle_alpha    88.9633095501093
_cell_angle_beta     89.02937112774508
_cell_angle_gamma    90.95290943090336

_space_group_name_H-M_alt    "P 1"
_space_group_IT_number       1

loop_
  _space_group_symop_operation_xyz
  'x, y, z'

loop_
  _atom_site_type_symbol
  _atom_site_label
  _atom_site_symmetry_multiplicity
  _atom_site_fract_x
  _atom_site_fract_y
  _atom_site_fract_z
  _atom_site_occupancy
  K   K1        1.0  0.18265001475811005  0.785500705242157  0.8620016574859619  1.0000
  S   S1        1.0  0.20438385009765625  0.3070734441280365  0.3635426461696625  1.0000
  O   O1        1.0  0.48777851462364197  0.26404324173927307  0.3768792748451233  1.0000
  F   F1        1.0  0.1747099608182907  0.27718907594680786  0.9975035190582275  1.0000
  K   K2        1.0  0.6763834953308105  0.7788527607917786  0.36696064472198486  1.0000
  K   K3        1.0  0.6825280785560608  0.285331666469574  0.8625035285949707  1.0000
  O   O2        1.0  0.16092407703399658  0.5897423624992371  0.3773513436317444  1.0000
  F   F2        1.0  0.6859644651412964  0.7889607548713684  0.8668320178985596  1.0000
