data_image0
_chemical_formula_structural       ODyOBrDyOLuO
_chemical_formula_sum              "O4 Dy2 Br1 Lu1"
_cell_length_a       3.8920800791719814
_cell_length_b       3.8925002135543396
_cell_length_c       9.047891616821289
_cell_angle_alpha    89.99068612663228
_cell_angle_beta     89.99577461766995
_cell_angle_gamma    89.95387823640104

_space_group_name_H-M_alt    "P 1"
_space_group_IT_number       1

loop_
  _space_group_symop_operation_xyz
  'x, y, z'

loop_
  _atom_site_type_symbol
  _atom_site_label
  _atom_site_symmetry_multiplicity
  _atom_site_fract_x
  _atom_site_fract_y
  _atom_site_fract_z
  _atom_site_occupancy
  O   O1        1.0  0.07803419232368469  0.1964801698923111  0.17894695699214935  1.0000
  Dy  Dy1       1.0  0.577560305595398  0.19698624312877655  0.7695777416229248  1.0000
  O   O2        1.0  0.5778685808181763  0.696455717086792  0.17910049855709076  1.0000
  Br  Br1       1.0  0.07765424996614456  0.6963853240013123  0.5243445634841919  1.0000
  Dy  Dy2       1.0  0.07793563604354858  0.6967003345489502  0.024318711832165718  1.0000
  O   O3        1.0  0.07765723019838333  0.19673626124858856  0.8713818788528442  1.0000
  Lu  Lu1       1.0  0.5776980519294739  0.19673897325992584  0.2722734808921814  1.0000
  O   O4        1.0  0.5778735876083374  0.6966342329978943  0.8713881373405457  1.0000
