# generated using pymatgen
data_Mn3Zn(FeO2)8
_symmetry_space_group_name_H-M   'P 1'
_cell_length_a   16.35840000
_cell_length_b   16.35840000
_cell_length_c   16.35840000
_cell_angle_alpha   90.00000000
_cell_angle_beta   90.00000000
_cell_angle_gamma   90.00000000
_symmetry_Int_Tables_number   1
_chemical_formula_structural   Mn3Zn(FeO2)8
_chemical_formula_sum   'Mn48 Zn16 Fe128 O256'
_cell_volume   4377.46286356
_cell_formula_units_Z   16
loop_
 _symmetry_equiv_pos_site_id
 _symmetry_equiv_pos_as_xyz
  1  'x, y, z'
loop_
 _atom_site_type_symbol
 _atom_site_label
 _atom_site_symmetry_multiplicity
 _atom_site_fract_x
 _atom_site_fract_y
 _atom_site_fract_z
 _atom_site_occupancy
  Fe  Fe0  1  0.18750000  0.68750000  0.81250000  1
  Fe  Fe1  1  0.68750000  0.68750000  0.81250000  1
  Fe  Fe2  1  0.18750000  0.18750000  0.81250000  1
  Fe  Fe3  1  0.68750000  0.18750000  0.81250000  1
  Fe  Fe4  1  0.18750000  0.68750000  0.31250000  1
  Fe  Fe5  1  0.68750000  0.68750000  0.31250000  1
  Fe  Fe6  1  0.18750000  0.18750000  0.31250000  1
  Fe  Fe7  1  0.68750000  0.18750000  0.31250000  1
  Fe  Fe8  1  0.18750000  0.06250000  0.43750000  1
  Fe  Fe9  1  0.68750000  0.06250000  0.43750000  1
  Fe  Fe10  1  0.18750000  0.56250000  0.43750000  1
  Fe  Fe11  1  0.68750000  0.56250000  0.43750000  1
  Fe  Fe12  1  0.18750000  0.06250000  0.93750000  1
  Fe  Fe13  1  0.68750000  0.06250000  0.93750000  1
  Fe  Fe14  1  0.18750000  0.56250000  0.93750000  1
  Fe  Fe15  1  0.68750000  0.56250000  0.93750000  1
  Fe  Fe16  1  0.06250000  0.06250000  0.31250000  1
  Fe  Fe17  1  0.56250000  0.06250000  0.31250000  1
  Fe  Fe18  1  0.06250000  0.56250000  0.31250000  1
  Fe  Fe19  1  0.56250000  0.56250000  0.31250000  1
  Fe  Fe20  1  0.06250000  0.06250000  0.81250000  1
  Fe  Fe21  1  0.56250000  0.06250000  0.81250000  1
  Fe  Fe22  1  0.06250000  0.56250000  0.81250000  1
  Fe  Fe23  1  0.56250000  0.56250000  0.81250000  1
  Fe  Fe24  1  0.43750000  0.18750000  0.06250000  1
  Fe  Fe25  1  0.93750000  0.18750000  0.06250000  1
  Fe  Fe26  1  0.43750000  0.68750000  0.06250000  1
  Fe  Fe27  1  0.93750000  0.68750000  0.06250000  1
  Fe  Fe28  1  0.43750000  0.18750000  0.56250000  1
  Fe  Fe29  1  0.93750000  0.18750000  0.56250000  1
  Fe  Fe30  1  0.43750000  0.68750000  0.56250000  1
  Fe  Fe31  1  0.93750000  0.68750000  0.56250000  1
  Fe  Fe32  1  0.81250000  0.18750000  0.68750000  1
  Fe  Fe33  1  0.31250000  0.18750000  0.68750000  1
  Fe  Fe34  1  0.81250000  0.68750000  0.68750000  1
  Fe  Fe35  1  0.31250000  0.68750000  0.68750000  1
  Fe  Fe36  1  0.81250000  0.18750000  0.18750000  1
  Fe  Fe37  1  0.31250000  0.18750000  0.18750000  1
  Fe  Fe38  1  0.81250000  0.68750000  0.18750000  1
  Fe  Fe39  1  0.31250000  0.68750000  0.18750000  1
  Fe  Fe40  1  0.81250000  0.06250000  0.56250000  1
  Fe  Fe41  1  0.31250000  0.06250000  0.56250000  1
  Fe  Fe42  1  0.81250000  0.56250000  0.56250000  1
  Fe  Fe43  1  0.31250000  0.56250000  0.56250000  1
  Fe  Fe44  1  0.81250000  0.06250000  0.06250000  1
  Fe  Fe45  1  0.31250000  0.06250000  0.06250000  1
  Fe  Fe46  1  0.81250000  0.56250000  0.06250000  1
  Fe  Fe47  1  0.31250000  0.56250000  0.06250000  1
  Fe  Fe48  1  0.06250000  0.31250000  0.06250000  1
  Fe  Fe49  1  0.56250000  0.31250000  0.06250000  1
  Fe  Fe50  1  0.06250000  0.81250000  0.06250000  1
  Fe  Fe51  1  0.56250000  0.81250000  0.06250000  1
  Fe  Fe52  1  0.06250000  0.31250000  0.56250000  1
  Fe  Fe53  1  0.56250000  0.31250000  0.56250000  1
  Fe  Fe54  1  0.06250000  0.81250000  0.56250000  1
  Fe  Fe55  1  0.56250000  0.81250000  0.56250000  1
  Fe  Fe56  1  0.68750000  0.31250000  0.68750000  1
  Fe  Fe57  1  0.18750000  0.31250000  0.68750000  1
  Fe  Fe58  1  0.68750000  0.81250000  0.68750000  1
  Fe  Fe59  1  0.18750000  0.81250000  0.68750000  1
  Fe  Fe60  1  0.68750000  0.31250000  0.18750000  1
  Fe  Fe61  1  0.18750000  0.31250000  0.18750000  1
  Fe  Fe62  1  0.68750000  0.81250000  0.18750000  1
  Fe  Fe63  1  0.18750000  0.81250000  0.18750000  1
  Fe  Fe64  1  0.56250000  0.43750000  0.68750000  1
  Fe  Fe65  1  0.06250000  0.43750000  0.68750000  1
  Fe  Fe66  1  0.56250000  0.93750000  0.68750000  1
  Fe  Fe67  1  0.06250000  0.93750000  0.68750000  1
  Fe  Fe68  1  0.56250000  0.43750000  0.18750000  1
  Fe  Fe69  1  0.06250000  0.43750000  0.18750000  1
  Fe  Fe70  1  0.56250000  0.93750000  0.18750000  1
  Fe  Fe71  1  0.06250000  0.93750000  0.18750000  1
  Fe  Fe72  1  0.93750000  0.43750000  0.81250000  1
  Fe  Fe73  1  0.43750000  0.43750000  0.81250000  1
  Fe  Fe74  1  0.93750000  0.93750000  0.81250000  1
  Fe  Fe75  1  0.43750000  0.93750000  0.81250000  1
  Fe  Fe76  1  0.93750000  0.43750000  0.31250000  1
  Fe  Fe77  1  0.43750000  0.43750000  0.31250000  1
  Fe  Fe78  1  0.93750000  0.93750000  0.31250000  1
  Fe  Fe79  1  0.43750000  0.93750000  0.31250000  1
  Fe  Fe80  1  0.93750000  0.81250000  0.43750000  1
  Fe  Fe81  1  0.43750000  0.81250000  0.43750000  1
  Fe  Fe82  1  0.93750000  0.31250000  0.43750000  1
  Fe  Fe83  1  0.43750000  0.31250000  0.43750000  1
  Fe  Fe84  1  0.93750000  0.81250000  0.93750000  1
  Fe  Fe85  1  0.43750000  0.81250000  0.93750000  1
  Fe  Fe86  1  0.93750000  0.31250000  0.93750000  1
  Fe  Fe87  1  0.43750000  0.31250000  0.93750000  1
  Fe  Fe88  1  0.81250000  0.93750000  0.43750000  1
  Fe  Fe89  1  0.31250000  0.93750000  0.43750000  1
  Fe  Fe90  1  0.81250000  0.43750000  0.43750000  1
  Fe  Fe91  1  0.31250000  0.43750000  0.43750000  1
  Fe  Fe92  1  0.81250000  0.93750000  0.93750000  1
  Fe  Fe93  1  0.31250000  0.93750000  0.93750000  1
  Fe  Fe94  1  0.81250000  0.43750000  0.93750000  1
  Fe  Fe95  1  0.31250000  0.43750000  0.93750000  1
  Fe  Fe96  1  0.43750000  0.56250000  0.68750000  1
  Fe  Fe97  1  0.93750000  0.56250000  0.68750000  1
  Fe  Fe98  1  0.43750000  0.06250000  0.68750000  1
  Fe  Fe99  1  0.93750000  0.06250000  0.68750000  1
  Fe  Fe100  1  0.43750000  0.56250000  0.18750000  1
  Fe  Fe101  1  0.93750000  0.56250000  0.18750000  1
  Fe  Fe102  1  0.43750000  0.06250000  0.18750000  1
  Fe  Fe103  1  0.93750000  0.06250000  0.18750000  1
  Fe  Fe104  1  0.68750000  0.43750000  0.56250000  1
  Fe  Fe105  1  0.18750000  0.43750000  0.56250000  1
  Fe  Fe106  1  0.68750000  0.93750000  0.56250000  1
  Fe  Fe107  1  0.18750000  0.93750000  0.56250000  1
  Fe  Fe108  1  0.68750000  0.43750000  0.06250000  1
  Fe  Fe109  1  0.18750000  0.43750000  0.06250000  1
  Fe  Fe110  1  0.68750000  0.93750000  0.06250000  1
  Fe  Fe111  1  0.18750000  0.93750000  0.06250000  1
  Fe  Fe112  1  0.56250000  0.68750000  0.43750000  1
  Fe  Fe113  1  0.06250000  0.68750000  0.43750000  1
  Fe  Fe114  1  0.56250000  0.18750000  0.43750000  1
  Fe  Fe115  1  0.06250000  0.18750000  0.43750000  1
  Fe  Fe116  1  0.56250000  0.68750000  0.93750000  1
  Fe  Fe117  1  0.06250000  0.68750000  0.93750000  1
  Fe  Fe118  1  0.56250000  0.18750000  0.93750000  1
  Fe  Fe119  1  0.06250000  0.18750000  0.93750000  1
  Fe  Fe120  1  0.81250000  0.81250000  0.31250000  1
  Fe  Fe121  1  0.31250000  0.81250000  0.31250000  1
  Fe  Fe122  1  0.81250000  0.31250000  0.31250000  1
  Fe  Fe123  1  0.31250000  0.31250000  0.31250000  1
  Fe  Fe124  1  0.81250000  0.81250000  0.81250000  1
  Fe  Fe125  1  0.31250000  0.81250000  0.81250000  1
  Fe  Fe126  1  0.81250000  0.31250000  0.81250000  1
  Fe  Fe127  1  0.31250000  0.31250000  0.81250000  1
  Mn  Mn128  1  1.00000000  0.50000000  1.00000000  1
  Mn  Mn129  1  0.50000000  0.50000000  1.00000000  1
  Mn  Mn130  1  1.00000000  1.00000000  1.00000000  1
  Mn  Mn131  1  0.50000000  1.00000000  1.00000000  1
  Mn  Mn132  1  1.00000000  0.50000000  0.50000000  1
  Mn  Mn133  1  1.00000000  1.00000000  0.50000000  1
  Mn  Mn134  1  0.50000000  0.25000000  0.25000000  1
  Mn  Mn135  1  0.50000000  0.75000000  0.25000000  1
  Mn  Mn136  1  1.00000000  0.25000000  0.75000000  1
  Mn  Mn137  1  1.00000000  0.75000000  0.75000000  1
  Mn  Mn138  1  0.50000000  0.75000000  0.75000000  1
  Mn  Mn139  1  0.25000000  0.75000000  0.50000000  1
  Mn  Mn140  1  0.75000000  0.75000000  0.50000000  1
  Mn  Mn141  1  0.25000000  0.25000000  1.00000000  1
  Mn  Mn142  1  0.25000000  0.75000000  1.00000000  1
  Mn  Mn143  1  0.75000000  0.75000000  1.00000000  1
  Mn  Mn144  1  0.25000000  1.00000000  0.25000000  1
  Mn  Mn145  1  0.75000000  1.00000000  0.25000000  1
  Mn  Mn146  1  0.25000000  0.50000000  0.25000000  1
  Mn  Mn147  1  0.75000000  0.50000000  0.25000000  1
  Mn  Mn148  1  0.25000000  1.00000000  0.75000000  1
  Mn  Mn149  1  0.75000000  1.00000000  0.75000000  1
  Mn  Mn150  1  0.25000000  0.50000000  0.75000000  1
  Mn  Mn151  1  0.75000000  0.50000000  0.75000000  1
  Mn  Mn152  1  0.12500000  0.12500000  0.12500000  1
  Mn  Mn153  1  0.62500000  0.62500000  0.12500000  1
  Mn  Mn154  1  0.12500000  0.62500000  0.12500000  1
  Mn  Mn155  1  0.62500000  0.12500000  0.62500000  1
  Mn  Mn156  1  0.12500000  0.12500000  0.62500000  1
  Mn  Mn157  1  0.62500000  0.62500000  0.62500000  1
  Mn  Mn158  1  0.62500000  0.87500000  0.37500000  1
  Mn  Mn159  1  0.12500000  0.87500000  0.37500000  1
  Mn  Mn160  1  0.12500000  0.37500000  0.37500000  1
  Mn  Mn161  1  0.12500000  0.87500000  0.87500000  1
  Mn  Mn162  1  0.12500000  0.37500000  0.87500000  1
  Mn  Mn163  1  0.37500000  0.62500000  0.37500000  1
  Mn  Mn164  1  0.37500000  0.12500000  0.37500000  1
  Mn  Mn165  1  0.87500000  0.12500000  0.37500000  1
  Mn  Mn166  1  0.87500000  0.62500000  0.87500000  1
  Mn  Mn167  1  0.37500000  0.12500000  0.87500000  1
  Mn  Mn168  1  0.87500000  0.12500000  0.87500000  1
  Mn  Mn169  1  0.37500000  0.37500000  0.12500000  1
  Mn  Mn170  1  0.87500000  0.87500000  0.12500000  1
  Mn  Mn171  1  0.37500000  0.87500000  0.12500000  1
  Mn  Mn172  1  0.87500000  0.37500000  0.62500000  1
  Mn  Mn173  1  0.37500000  0.37500000  0.62500000  1
  Mn  Mn174  1  0.87500000  0.87500000  0.62500000  1
  Mn  Mn175  1  0.37500000  0.87500000  0.62500000  1
  O  O176  1  0.44432500  0.30567500  0.05567500  1
  O  O177  1  0.94432500  0.30567500  0.05567500  1
  O  O178  1  0.44432500  0.80567500  0.05567500  1
  O  O179  1  0.94432500  0.80567500  0.05567500  1
  O  O180  1  0.44432500  0.30567500  0.55567500  1
  O  O181  1  0.94432500  0.30567500  0.55567500  1
  O  O182  1  0.44432500  0.80567500  0.55567500  1
  O  O183  1  0.94432500  0.80567500  0.55567500  1
  O  O184  1  0.05567500  0.44432500  0.30567500  1
  O  O185  1  0.55567500  0.44432500  0.30567500  1
  O  O186  1  0.05567500  0.94432500  0.30567500  1
  O  O187  1  0.55567500  0.94432500  0.30567500  1
  O  O188  1  0.05567500  0.44432500  0.80567500  1
  O  O189  1  0.55567500  0.44432500  0.80567500  1
  O  O190  1  0.05567500  0.94432500  0.80567500  1
  O  O191  1  0.55567500  0.94432500  0.80567500  1
  O  O192  1  0.30567500  0.05567500  0.44432500  1
  O  O193  1  0.80567500  0.05567500  0.44432500  1
  O  O194  1  0.30567500  0.55567500  0.44432500  1
  O  O195  1  0.80567500  0.55567500  0.44432500  1
  O  O196  1  0.30567500  0.05567500  0.94432500  1
  O  O197  1  0.80567500  0.05567500  0.94432500  1
  O  O198  1  0.30567500  0.55567500  0.94432500  1
  O  O199  1  0.80567500  0.55567500  0.94432500  1
  O  O200  1  0.19432500  0.19432500  0.19432500  1
  O  O201  1  0.69432500  0.19432500  0.19432500  1
  O  O202  1  0.19432500  0.69432500  0.19432500  1
  O  O203  1  0.69432500  0.69432500  0.19432500  1
  O  O204  1  0.19432500  0.19432500  0.69432500  1
  O  O205  1  0.69432500  0.19432500  0.69432500  1
  O  O206  1  0.19432500  0.69432500  0.69432500  1
  O  O207  1  0.69432500  0.69432500  0.69432500  1
  O  O208  1  0.18067500  0.06932500  0.31932500  1
  O  O209  1  0.68067500  0.06932500  0.31932500  1
  O  O210  1  0.18067500  0.56932500  0.31932500  1
  O  O211  1  0.68067500  0.56932500  0.31932500  1
  O  O212  1  0.18067500  0.06932500  0.81932500  1
  O  O213  1  0.68067500  0.06932500  0.81932500  1
  O  O214  1  0.18067500  0.56932500  0.81932500  1
  O  O215  1  0.68067500  0.56932500  0.81932500  1
  O  O216  1  0.31932500  0.18067500  0.06932500  1
  O  O217  1  0.81932500  0.18067500  0.06932500  1
  O  O218  1  0.31932500  0.68067500  0.06932500  1
  O  O219  1  0.81932500  0.68067500  0.06932500  1
  O  O220  1  0.31932500  0.18067500  0.56932500  1
  O  O221  1  0.81932500  0.18067500  0.56932500  1
  O  O222  1  0.31932500  0.68067500  0.56932500  1
  O  O223  1  0.81932500  0.68067500  0.56932500  1
  O  O224  1  0.43067500  0.43067500  0.43067500  1
  O  O225  1  0.93067500  0.43067500  0.43067500  1
  O  O226  1  0.43067500  0.93067500  0.43067500  1
  O  O227  1  0.93067500  0.93067500  0.43067500  1
  O  O228  1  0.43067500  0.43067500  0.93067500  1
  O  O229  1  0.93067500  0.43067500  0.93067500  1
  O  O230  1  0.43067500  0.93067500  0.93067500  1
  O  O231  1  0.93067500  0.93067500  0.93067500  1
  O  O232  1  0.06932500  0.31932500  0.18067500  1
  O  O233  1  0.56932500  0.31932500  0.18067500  1
  O  O234  1  0.06932500  0.81932500  0.18067500  1
  O  O235  1  0.56932500  0.81932500  0.18067500  1
  O  O236  1  0.06932500  0.31932500  0.68067500  1
  O  O237  1  0.56932500  0.31932500  0.68067500  1
  O  O238  1  0.06932500  0.81932500  0.68067500  1
  O  O239  1  0.56932500  0.81932500  0.68067500  1
  O  O240  1  0.18067500  0.31932500  0.06932500  1
  O  O241  1  0.68067500  0.31932500  0.06932500  1
  O  O242  1  0.18067500  0.81932500  0.06932500  1
  O  O243  1  0.68067500  0.81932500  0.06932500  1
  O  O244  1  0.18067500  0.31932500  0.56932500  1
  O  O245  1  0.68067500  0.31932500  0.56932500  1
  O  O246  1  0.18067500  0.81932500  0.56932500  1
  O  O247  1  0.68067500  0.81932500  0.56932500  1
  O  O248  1  0.06932500  0.18067500  0.31932500  1
  O  O249  1  0.56932500  0.18067500  0.31932500  1
  O  O250  1  0.06932500  0.68067500  0.31932500  1
  O  O251  1  0.56932500  0.68067500  0.31932500  1
  O  O252  1  0.06932500  0.18067500  0.81932500  1
  O  O253  1  0.56932500  0.18067500  0.81932500  1
  O  O254  1  0.06932500  0.68067500  0.81932500  1
  O  O255  1  0.56932500  0.68067500  0.81932500  1
  O  O256  1  0.31932500  0.06932500  0.18067500  1
  O  O257  1  0.81932500  0.06932500  0.18067500  1
  O  O258  1  0.31932500  0.56932500  0.18067500  1
  O  O259  1  0.81932500  0.56932500  0.18067500  1
  O  O260  1  0.31932500  0.06932500  0.68067500  1
  O  O261  1  0.81932500  0.06932500  0.68067500  1
  O  O262  1  0.31932500  0.56932500  0.68067500  1
  O  O263  1  0.81932500  0.56932500  0.68067500  1
  O  O264  1  0.44432500  0.05567500  0.30567500  1
  O  O265  1  0.94432500  0.05567500  0.30567500  1
  O  O266  1  0.44432500  0.55567500  0.30567500  1
  O  O267  1  0.94432500  0.55567500  0.30567500  1
  O  O268  1  0.44432500  0.05567500  0.80567500  1
  O  O269  1  0.94432500  0.05567500  0.80567500  1
  O  O270  1  0.44432500  0.55567500  0.80567500  1
  O  O271  1  0.94432500  0.55567500  0.80567500  1
  O  O272  1  0.30567500  0.44432500  0.05567500  1
  O  O273  1  0.80567500  0.44432500  0.05567500  1
  O  O274  1  0.30567500  0.94432500  0.05567500  1
  O  O275  1  0.80567500  0.94432500  0.05567500  1
  O  O276  1  0.30567500  0.44432500  0.55567500  1
  O  O277  1  0.80567500  0.44432500  0.55567500  1
  O  O278  1  0.30567500  0.94432500  0.55567500  1
  O  O279  1  0.80567500  0.94432500  0.55567500  1
  O  O280  1  0.05567500  0.30567500  0.44432500  1
  O  O281  1  0.55567500  0.30567500  0.44432500  1
  O  O282  1  0.05567500  0.80567500  0.44432500  1
  O  O283  1  0.55567500  0.80567500  0.44432500  1
  O  O284  1  0.05567500  0.30567500  0.94432500  1
  O  O285  1  0.55567500  0.30567500  0.94432500  1
  O  O286  1  0.05567500  0.80567500  0.94432500  1
  O  O287  1  0.55567500  0.80567500  0.94432500  1
  O  O288  1  0.05567500  0.19432500  0.05567500  1
  O  O289  1  0.55567500  0.19432500  0.05567500  1
  O  O290  1  0.05567500  0.69432500  0.05567500  1
  O  O291  1  0.55567500  0.69432500  0.05567500  1
  O  O292  1  0.05567500  0.19432500  0.55567500  1
  O  O293  1  0.55567500  0.19432500  0.55567500  1
  O  O294  1  0.05567500  0.69432500  0.55567500  1
  O  O295  1  0.55567500  0.69432500  0.55567500  1
  O  O296  1  0.30567500  0.30567500  0.19432500  1
  O  O297  1  0.80567500  0.30567500  0.19432500  1
  O  O298  1  0.30567500  0.80567500  0.19432500  1
  O  O299  1  0.80567500  0.80567500  0.19432500  1
  O  O300  1  0.30567500  0.30567500  0.69432500  1
  O  O301  1  0.80567500  0.30567500  0.69432500  1
  O  O302  1  0.30567500  0.80567500  0.69432500  1
  O  O303  1  0.80567500  0.80567500  0.69432500  1
  O  O304  1  0.19432500  0.44432500  0.44432500  1
  O  O305  1  0.69432500  0.44432500  0.44432500  1
  O  O306  1  0.19432500  0.94432500  0.44432500  1
  O  O307  1  0.69432500  0.94432500  0.44432500  1
  O  O308  1  0.19432500  0.44432500  0.94432500  1
  O  O309  1  0.69432500  0.44432500  0.94432500  1
  O  O310  1  0.19432500  0.94432500  0.94432500  1
  O  O311  1  0.69432500  0.94432500  0.94432500  1
  O  O312  1  0.31932500  0.43067500  0.31932500  1
  O  O313  1  0.81932500  0.43067500  0.31932500  1
  O  O314  1  0.31932500  0.93067500  0.31932500  1
  O  O315  1  0.81932500  0.93067500  0.31932500  1
  O  O316  1  0.31932500  0.43067500  0.81932500  1
  O  O317  1  0.81932500  0.43067500  0.81932500  1
  O  O318  1  0.31932500  0.93067500  0.81932500  1
  O  O319  1  0.81932500  0.93067500  0.81932500  1
  O  O320  1  0.43067500  0.18067500  0.18067500  1
  O  O321  1  0.93067500  0.18067500  0.18067500  1
  O  O322  1  0.43067500  0.68067500  0.18067500  1
  O  O323  1  0.93067500  0.68067500  0.18067500  1
  O  O324  1  0.43067500  0.18067500  0.68067500  1
  O  O325  1  0.93067500  0.18067500  0.68067500  1
  O  O326  1  0.43067500  0.68067500  0.68067500  1
  O  O327  1  0.93067500  0.68067500  0.68067500  1
  O  O328  1  0.06932500  0.06932500  0.43067500  1
  O  O329  1  0.56932500  0.06932500  0.43067500  1
  O  O330  1  0.06932500  0.56932500  0.43067500  1
  O  O331  1  0.56932500  0.56932500  0.43067500  1
  O  O332  1  0.06932500  0.06932500  0.93067500  1
  O  O333  1  0.56932500  0.06932500  0.93067500  1
  O  O334  1  0.06932500  0.56932500  0.93067500  1
  O  O335  1  0.56932500  0.56932500  0.93067500  1
  O  O336  1  0.06932500  0.43067500  0.06932500  1
  O  O337  1  0.56932500  0.43067500  0.06932500  1
  O  O338  1  0.06932500  0.93067500  0.06932500  1
  O  O339  1  0.56932500  0.93067500  0.06932500  1
  O  O340  1  0.06932500  0.43067500  0.56932500  1
  O  O341  1  0.56932500  0.43067500  0.56932500  1
  O  O342  1  0.06932500  0.93067500  0.56932500  1
  O  O343  1  0.56932500  0.93067500  0.56932500  1
  O  O344  1  0.31932500  0.31932500  0.43067500  1
  O  O345  1  0.81932500  0.31932500  0.43067500  1
  O  O346  1  0.31932500  0.81932500  0.43067500  1
  O  O347  1  0.81932500  0.81932500  0.43067500  1
  O  O348  1  0.31932500  0.31932500  0.93067500  1
  O  O349  1  0.81932500  0.31932500  0.93067500  1
  O  O350  1  0.31932500  0.81932500  0.93067500  1
  O  O351  1  0.81932500  0.81932500  0.93067500  1
  O  O352  1  0.30567500  0.19432500  0.30567500  1
  O  O353  1  0.80567500  0.19432500  0.30567500  1
  O  O354  1  0.30567500  0.69432500  0.30567500  1
  O  O355  1  0.80567500  0.69432500  0.30567500  1
  O  O356  1  0.30567500  0.19432500  0.80567500  1
  O  O357  1  0.80567500  0.19432500  0.80567500  1
  O  O358  1  0.30567500  0.69432500  0.80567500  1
  O  O359  1  0.80567500  0.69432500  0.80567500  1
  O  O360  1  0.05567500  0.05567500  0.19432500  1
  O  O361  1  0.55567500  0.05567500  0.19432500  1
  O  O362  1  0.05567500  0.55567500  0.19432500  1
  O  O363  1  0.55567500  0.55567500  0.19432500  1
  O  O364  1  0.05567500  0.05567500  0.69432500  1
  O  O365  1  0.55567500  0.05567500  0.69432500  1
  O  O366  1  0.05567500  0.55567500  0.69432500  1
  O  O367  1  0.55567500  0.55567500  0.69432500  1
  O  O368  1  0.19432500  0.30567500  0.30567500  1
  O  O369  1  0.69432500  0.30567500  0.30567500  1
  O  O370  1  0.19432500  0.80567500  0.30567500  1
  O  O371  1  0.69432500  0.80567500  0.30567500  1
  O  O372  1  0.19432500  0.30567500  0.80567500  1
  O  O373  1  0.69432500  0.30567500  0.80567500  1
  O  O374  1  0.19432500  0.80567500  0.80567500  1
  O  O375  1  0.69432500  0.80567500  0.80567500  1
  O  O376  1  0.44432500  0.19432500  0.44432500  1
  O  O377  1  0.94432500  0.19432500  0.44432500  1
  O  O378  1  0.44432500  0.69432500  0.44432500  1
  O  O379  1  0.94432500  0.69432500  0.44432500  1
  O  O380  1  0.44432500  0.19432500  0.94432500  1
  O  O381  1  0.94432500  0.19432500  0.94432500  1
  O  O382  1  0.44432500  0.69432500  0.94432500  1
  O  O383  1  0.94432500  0.69432500  0.94432500  1
  O  O384  1  0.43067500  0.06932500  0.06932500  1
  O  O385  1  0.93067500  0.06932500  0.06932500  1
  O  O386  1  0.43067500  0.56932500  0.06932500  1
  O  O387  1  0.93067500  0.56932500  0.06932500  1
  O  O388  1  0.43067500  0.06932500  0.56932500  1
  O  O389  1  0.93067500  0.06932500  0.56932500  1
  O  O390  1  0.43067500  0.56932500  0.56932500  1
  O  O391  1  0.93067500  0.56932500  0.56932500  1
  O  O392  1  0.18067500  0.43067500  0.18067500  1
  O  O393  1  0.68067500  0.43067500  0.18067500  1
  O  O394  1  0.18067500  0.93067500  0.18067500  1
  O  O395  1  0.68067500  0.93067500  0.18067500  1
  O  O396  1  0.18067500  0.43067500  0.68067500  1
  O  O397  1  0.68067500  0.43067500  0.68067500  1
  O  O398  1  0.18067500  0.93067500  0.68067500  1
  O  O399  1  0.68067500  0.93067500  0.68067500  1
  O  O400  1  0.43067500  0.31932500  0.31932500  1
  O  O401  1  0.93067500  0.31932500  0.31932500  1
  O  O402  1  0.43067500  0.81932500  0.31932500  1
  O  O403  1  0.93067500  0.81932500  0.31932500  1
  O  O404  1  0.43067500  0.31932500  0.81932500  1
  O  O405  1  0.93067500  0.31932500  0.81932500  1
  O  O406  1  0.43067500  0.81932500  0.81932500  1
  O  O407  1  0.93067500  0.81932500  0.81932500  1
  O  O408  1  0.19432500  0.05567500  0.05567500  1
  O  O409  1  0.69432500  0.05567500  0.05567500  1
  O  O410  1  0.19432500  0.55567500  0.05567500  1
  O  O411  1  0.69432500  0.55567500  0.05567500  1
  O  O412  1  0.19432500  0.05567500  0.55567500  1
  O  O413  1  0.69432500  0.05567500  0.55567500  1
  O  O414  1  0.19432500  0.55567500  0.55567500  1
  O  O415  1  0.69432500  0.55567500  0.55567500  1
  O  O416  1  0.44432500  0.44432500  0.19432500  1
  O  O417  1  0.94432500  0.44432500  0.19432500  1
  O  O418  1  0.44432500  0.94432500  0.19432500  1
  O  O419  1  0.94432500  0.94432500  0.19432500  1
  O  O420  1  0.44432500  0.44432500  0.69432500  1
  O  O421  1  0.94432500  0.44432500  0.69432500  1
  O  O422  1  0.44432500  0.94432500  0.69432500  1
  O  O423  1  0.94432500  0.94432500  0.69432500  1
  O  O424  1  0.18067500  0.18067500  0.43067500  1
  O  O425  1  0.68067500  0.18067500  0.43067500  1
  O  O426  1  0.18067500  0.68067500  0.43067500  1
  O  O427  1  0.68067500  0.68067500  0.43067500  1
  O  O428  1  0.18067500  0.18067500  0.93067500  1
  O  O429  1  0.68067500  0.18067500  0.93067500  1
  O  O430  1  0.18067500  0.68067500  0.93067500  1
  O  O431  1  0.68067500  0.68067500  0.93067500  1
  Zn  Zn432  1  0.50000000  0.50000000  0.50000000  1
  Zn  Zn433  1  0.50000000  1.00000000  0.50000000  1
  Zn  Zn434  1  1.00000000  0.25000000  0.25000000  1
  Zn  Zn435  1  1.00000000  0.75000000  0.25000000  1
  Zn  Zn436  1  0.50000000  0.25000000  0.75000000  1
  Zn  Zn437  1  0.25000000  0.25000000  0.50000000  1
  Zn  Zn438  1  0.75000000  0.25000000  0.50000000  1
  Zn  Zn439  1  0.75000000  0.25000000  1.00000000  1
  Zn  Zn440  1  0.62500000  0.12500000  0.12500000  1
  Zn  Zn441  1  0.12500000  0.62500000  0.62500000  1
  Zn  Zn442  1  0.62500000  0.37500000  0.37500000  1
  Zn  Zn443  1  0.62500000  0.87500000  0.87500000  1
  Zn  Zn444  1  0.62500000  0.37500000  0.87500000  1
  Zn  Zn445  1  0.87500000  0.62500000  0.37500000  1
  Zn  Zn446  1  0.37500000  0.62500000  0.87500000  1
  Zn  Zn447  1  0.87500000  0.37500000  0.12500000  1
