data_image0
_chemical_formula_structural       InF2InF4
_chemical_formula_sum              "In2 F6"
_cell_length_a       5.578213928712861
_cell_length_b       5.577169769616587
_cell_length_c       5.830665111541748
_cell_angle_alpha    61.377315107450926
_cell_angle_beta     61.41454126611986
_cell_angle_gamma    59.99425949828045

_space_group_name_H-M_alt    "P 1"
_space_group_IT_number       1

loop_
  _space_group_symop_operation_xyz
  'x, y, z'

loop_
  _atom_site_type_symbol
  _atom_site_label
  _atom_site_symmetry_multiplicity
  _atom_site_fract_x
  _atom_site_fract_y
  _atom_site_fract_z
  _atom_site_occupancy
  In  In1       1.0  0.38679590821266174  0.8095245361328125  0.8327264785766602  1.0000
  F   F1        1.0  0.24083144962787628  0.05935557931661606  0.08255797624588013  1.0000
  F   F2        1.0  0.5329650044441223  0.5594788789749146  0.5827916860580444  1.0000
  In  In2       1.0  0.8865684270858765  0.3096616864204407  0.33265528082847595  1.0000
  F   F3        1.0  0.7410947680473328  0.9551075100898742  0.5821361541748047  1.0000
  F   F4        1.0  0.13659194111824036  0.16337361931800842  0.5821611285209656  1.0000
  F   F5        1.0  0.6370449662208557  0.45533901453018183  0.08274584263563156  1.0000
  F   F6        1.0  0.03232555836439133  0.6638406515121459  0.08313369750976567  1.0000
