data_image0
_chemical_formula_structural       OHoOAsHoGeOHoOYbO3HoYbO5
_chemical_formula_sum              "O12 Ho4 As1 Ge1 Yb2"
_cell_length_a       5.651035774279198
_cell_length_b       5.648664950951533
_cell_length_c       9.498291969299316
_cell_angle_alpha    72.80763015911097
_cell_angle_beta     72.73766753863265
_cell_angle_gamma    60.00295403537829

_space_group_name_H-M_alt    "P 1"
_space_group_IT_number       1

loop_
  _space_group_symop_operation_xyz
  'x, y, z'

loop_
  _atom_site_type_symbol
  _atom_site_label
  _atom_site_symmetry_multiplicity
  _atom_site_fract_x
  _atom_site_fract_y
  _atom_site_fract_z
  _atom_site_occupancy
  O   O1        1.0  0.6475580930709839  0.7825898528099059  0.6787399053573608  1.0000
  Ho  Ho1       1.0  0.6929547786712646  0.3663989007472992  0.811453640460968  1.0000
  O   O2        1.0  0.6094012260437012  0.6082354187965392  0.19472934305667883  1.0000
  As  As1       1.0  0.4431303143501282  0.1161302551627159  0.5610083341598511  1.0000
  Ho  Ho2       1.0  0.560569703578949  0.23265010118484497  0.21023611724376678  1.0000
  Ge  Ge1       1.0  0.9433397650718689  0.6161653399467468  0.0614883154630661  1.0000
  O   O3        1.0  0.9355250597000122  0.8248514533042908  0.19483432173728948  1.0000
  Ho  Ho3       1.0  0.19349852204322815  0.8660683035850525  0.31155839562416077  1.0000
  O   O4        1.0  0.9306161403656006  0.408557653427124  0.9407881498336792  1.0000
  Yb  Yb1       1.0  0.05486510321497913  0.7282764315605164  0.7249079942703248  1.0000
  O   O5        1.0  0.7719768285751343  0.12159731984138489  0.4332329034805298  1.0000
  O   O6        1.0  0.45318952202796936  0.32106050848960876  0.6796813607215881  1.0000
  O   O7        1.0  0.23723055422306064  0.44506347179412836  0.43339040875434875  1.0000
  Ho  Ho4       1.0  0.8286238312721252  0.5008577108383179  0.40624296665191656  1.0000
  Yb  Yb2       1.0  0.32881757616996765  0.0035347938537597656  0.9039392471313477  1.0000
  O   O8        1.0  0.1530448496341706  0.280710756778717  0.194022074341774  1.0000
  O   O9        1.0  0.7348079085350036  0.956972599029541  0.9414833188056946  1.0000
  O   O10       1.0  0.4486966133117676  0.9095334410667419  0.4330589473247528  1.0000
  O   O11       1.0  0.10886605829000473  0.12836416065692902  0.6781131625175476  1.0000
  O   O12       1.0  0.2843349874019623  0.6042786836624144  0.9414753317832947  1.0000
