data_image0
_chemical_formula_structural       OHFOAlFOF
_chemical_formula_sum              "O3 H1 F3 Al1"
_cell_length_a       4.9565154346338725
_cell_length_b       5.058099570693902
_cell_length_c       6.53921365737915
_cell_angle_alpha    104.59897806452464
_cell_angle_beta     104.00692974116392
_cell_angle_gamma    120.3144269513268

_space_group_name_H-M_alt    "P 1"
_space_group_IT_number       1

loop_
  _space_group_symop_operation_xyz
  'x, y, z'

loop_
  _atom_site_type_symbol
  _atom_site_label
  _atom_site_symmetry_multiplicity
  _atom_site_fract_x
  _atom_site_fract_y
  _atom_site_fract_z
  _atom_site_occupancy
  O   O1        1.0  0.5156227946281432  0.5320562720298766  0.6803518533706665  1.0000
  H   H1        1.0  0.8401972651481628  0.5911269783973694  0.21173736453056333  1.0000
  F   F1        1.0  0.6645564436912536  0.1695161163806915  0.4835847616195679  1.0000
  O   O2        1.0  0.7774454951286316  0.8083204030990601  0.7395226955413818  1.0000
  Al  Al1       1.0  0.4727647602558136  0.8138744831085205  0.22513021528720856  1.0000
  F   F2        1.0  0.35262125730514526  0.8857398629188538  0.9903023838996888  1.0000
  O   O3        1.0  0.7308458089828491  0.7043800950050354  0.21581342816352844  1.0000
  F   F3        1.0  0.09368976205587383  0.49688380956649775  0.21443061530590057  1.0000
