data_image0
_chemical_formula_structural       TbHTbHI2
_chemical_formula_sum              "Tb2 H2 I2"
_cell_length_a       3.8583353261144633
_cell_length_b       3.8571320031713343
_cell_length_c       9.857260704040527
_cell_angle_alpha    89.90510386048072
_cell_angle_beta     89.98912201363673
_cell_angle_gamma    89.8586175977119

_space_group_name_H-M_alt    "P 1"
_space_group_IT_number       1

loop_
  _space_group_symop_operation_xyz
  'x, y, z'

loop_
  _atom_site_type_symbol
  _atom_site_label
  _atom_site_symmetry_multiplicity
  _atom_site_fract_x
  _atom_site_fract_y
  _atom_site_fract_z
  _atom_site_occupancy
  Tb  Tb1       1.0  0.5668055415153503  0.564208984375  0.6488129496574402  1.0000
  H   H1        1.0  0.06654125452041626  0.5653647780418396  0.5266007781028748  1.0000
  Tb  Tb2       1.0  0.06712379306554794  0.06512821465730667  0.40187641978263855  1.0000
  H   H2        1.0  0.5670971870422363  0.06463520228862762  0.526656985282898  1.0000
  I   I1        1.0  0.5669717788696289  0.5650127530097961  0.2272845059633255  1.0000
  I   I2        1.0  0.06714502722024918  0.06439942866563797  0.8267987966537476  1.0000
