data_image0
_chemical_formula_structural       H2TiOTiHO2HO3
_chemical_formula_sum              "H4 Ti2 O6"
_cell_length_a       4.906987240843705
_cell_length_b       5.18488822823274
_cell_length_c       5.45020866394043
_cell_angle_alpha    88.84226482357903
_cell_angle_beta     63.14067381045167
_cell_angle_gamma    61.199505333207235

_space_group_name_H-M_alt    "P 1"
_space_group_IT_number       1

loop_
  _space_group_symop_operation_xyz
  'x, y, z'

loop_
  _atom_site_type_symbol
  _atom_site_label
  _atom_site_symmetry_multiplicity
  _atom_site_fract_x
  _atom_site_fract_y
  _atom_site_fract_z
  _atom_site_occupancy
  H   H1        1.0  0.6397500038146973  0.9374178051948546  0.22615504264831537  1.0000
  H   H2        1.0  0.8685185313224791  0.513848602771759  0.20743024349212646  1.0000
  Ti  Ti1       1.0  0.26750242710113525  0.9569167494773865  0.9972931146621705  1.0000
  O   O1        1.0  0.4236083030700684  0.10120538622140884  0.2263829410076141  1.0000
  Ti  Ti2       1.0  0.2984834313392639  0.4579610824584961  0.49841287732124334  1.0000
  H   H3        1.0  0.9287452101707458  0.013643755577504635  0.7117378115653992  1.0000
  O   O2        1.0  0.44254127144813543  0.2387785017490387  0.7129757404327393  1.0000
  O   O3        1.0  0.7709659337997437  0.6009024977684021  0.7271981239318848  1.0000
  H   H4        1.0  0.7215454578399658  0.4369279444217682  0.7267137765884399  1.0000
  O   O4        1.0  0.12700091302394867  0.7407695651054382  0.213550329208374  1.0000
  O   O5        1.0  0.8037720322608948  0.36221301555633545  0.2084548026323318  1.0000
  O   O6        1.0  0.1459750086069107  0.8617235422134399  0.7113007307052612  1.0000
