data_image0
_chemical_formula_structural       BCsO2
_chemical_formula_sum              "B1 Cs1 O2"
_cell_length_a       4.742605645732456
_cell_length_b       4.742459791289705
_cell_length_c       6.293924331665039
_cell_angle_alpha    67.66334299321261
_cell_angle_beta     67.70714551764726
_cell_angle_gamma    59.97652253617322

_space_group_name_H-M_alt    "P 1"
_space_group_IT_number       1

loop_
  _space_group_symop_operation_xyz
  'x, y, z'

loop_
  _atom_site_type_symbol
  _atom_site_label
  _atom_site_symmetry_multiplicity
  _atom_site_fract_x
  _atom_site_fract_y
  _atom_site_fract_z
  _atom_site_occupancy
  B   B1        1.0  0.7159885764122009  0.08700995147228241  0.6549911499023438  1.0000
  Cs  Cs1       1.0  0.2163547575473786  0.5873731374740601  0.15624980628490445  1.0000
  O   O1        1.0  0.6424724459648132  0.013459726236760615  0.8766137361526489  1.0000
  O   O2        1.0  0.7904995679855347  0.16076597571372983  0.43300071358680725  1.0000
