data_image0
_chemical_formula_structural       H2O2HOP2HO3PO3
_chemical_formula_sum              "H4 O9 P3"
_cell_length_a       5.515287403464324
_cell_length_b       6.231875588275077
_cell_length_c       7.311573505401611
_cell_angle_alpha    99.8615321066176
_cell_angle_beta     116.23533870964204
_cell_angle_gamma    102.19049508189376

_space_group_name_H-M_alt    "P 1"
_space_group_IT_number       1

loop_
  _space_group_symop_operation_xyz
  'x, y, z'

loop_
  _atom_site_type_symbol
  _atom_site_label
  _atom_site_symmetry_multiplicity
  _atom_site_fract_x
  _atom_site_fract_y
  _atom_site_fract_z
  _atom_site_occupancy
  H   H1        1.0  0.6698307394981384  0.4136021435260772  0.0069201071746647054  1.0000
  H   H2        1.0  0.1282348781824112  0.12483873963356017  0.23385854065418243  1.0000
  O   O1        1.0  0.6505263447761536  0.6581758856773375  0.6699203252792358  1.0000
  O   O2        1.0  0.13640321791172028  0.918430507183075  0.7658573389053345  1.0000
  H   H3        1.0  0.7152247428894043  0.6784673929214476  0.8295755386352539  1.0000
  O   O3        1.0  0.7888514399528503  0.6642727851867675  0.053179990500211716  1.0000
  P   P1        1.0  0.8014336228370665  0.8483996987342833  0.6174480319023132  1.0000
  P   P2        1.0  0.36933210492134094  0.09180290997028351  0.9946966767311096  1.0000
  H   H4        1.0  0.6616818308830261  0.12039916217327118  0.7321589589118958  1.0000
  O   O4        1.0  0.7565654516220093  0.743802547454834  0.38879552483558655  1.0000
  O   O5        1.0  0.25035399198532104  0.21898826956748962  0.10365444421768188  1.0000
  O   O6        1.0  0.0445074699819088  0.07160623371601105  0.3279733955860138  1.0000
  P   P3        1.0  0.7862498760223389  0.8476214408874511  0.21304565668106074  1.0000
  O   O7        1.0  0.49994370341300964  0.9178650379180907  0.11327998340129852  1.0000
  O   O8        1.0  0.5939459800720215  0.23002539575099945  0.9458971619606018  1.0000
  O   O9        1.0  0.6976884007453918  0.059629812836647034  0.6130253076553345  1.0000
