4
Lattice="4.605111122131348 0.0 1.7766178846359253 1.9611281849867623 4.166757482580542 1.7794822454452515 0.0 0.0 6.869606018066406" Properties=species:S:1:pos:R:3 pbc="T T T"
Br       1.38935153       0.39236063       5.89288757
Cs       4.67199711       2.47756353       4.23315048
F        2.08997929       0.83806578       4.06994237
F        2.64991474       4.11663087       2.62012962
18
Lattice="6.49508810043335 0.0 -2.13448166847229 -0.94017340360341 6.084457690136511 -2.1822643280029297 0.0 0.0 6.890346527099609" Properties=species:S:1:pos:R:3 pbc="T T T"
O        3.66932845       5.11626999       0.08138916
H        3.56011099       1.80070230       0.71603279
Si       2.71215027       5.54087133      -1.17892066
K        2.60937592       1.38115049       4.72457299
K        0.15759728       1.93493037       1.52875141
O        4.78203025       1.98248406       3.55174062
Si       3.45609896       4.15932808       1.41945666
H        2.56415298       4.53807335       3.60078880
O        4.96007042       4.03965036       2.08971581
O        1.17559398       5.85482777      -0.62656920
P        5.74172544       2.97371185       2.98791803
O        0.25975162       2.31725802       4.19987055
H        0.63537854       5.00029651      -0.58913432
O        2.69023286       4.27649544      -2.19259506
O       -0.12862585       3.70604054      -0.60680624
O        4.16298741       0.80809530       0.27869797
O        2.45241306       4.86495723       2.43869194
O        2.91180483       2.68878323       1.03996283
6
Lattice="4.991422653198242 0.0 1.0346627235412598 2.39167350300653 4.387220378023691 1.0329951047897339 0.0 0.0 12.590097427368164" Properties=species:S:1:pos:R:3 pbc="T T T"
Na       2.45707680       2.65241491       3.90061798
Na       4.16850987       0.70129575       8.19627650
I        3.08350303       3.02655471      13.47084646
Na       5.80091748       1.67311191      12.89553425
I        4.79261129       1.07452037       5.18567403
I        1.43851785       2.04713064       8.81449543
4
Lattice="5.053347587585449 0.0 1.510947585105896 2.3000299942131903 4.50400963885355 1.508575677871704 0.0 0.0 9.180644989013672" Properties=species:S:1:pos:R:3 pbc="T T T"
Rb       4.94371198       0.18252308       7.53266297
I        1.72559623       1.30713512       9.07008638
Rb       3.56733053       2.43499138       2.94241661
I        5.40918891       3.56372027       5.99090221
10
Lattice="6.653316974639893 0.0 3.548147201538086 3.364008797041804 7.072818626379772 1.7293553352355957 0.0 0.0 8.028717994689941" Properties=species:S:1:pos:R:3 pbc="T T T"
Br       2.70663622       0.57925173       2.85790460
Br       8.38630638       4.52372785       8.24673817
Sc       3.90561817       6.08274975       4.63653794
Br       7.68394047       4.21427610       4.54822382
Sc       7.23780017       6.08164228       6.40962381
Br       5.90011586       0.87296306       7.85754191
Br       4.83596420       5.03280867       6.91201903
Br       5.19681477       4.23726404       3.23331742
Br       3.43328435       0.87829727       6.56228877
Br       6.27351265       0.07130467       4.18215910
7
Lattice="6.632353782653809 0.0 -3.166860342025757 -4.005857418067535 6.073886410532985 -1.0710902214050293 0.0 0.0 7.354780673980713" Properties=species:S:1:pos:R:3 pbc="T T T"
Mg       3.80931344       3.29194613       2.17985641
Rb       5.81454449       0.26365349      -0.95742210
Ni      -0.51398431       4.81474763       1.65601923
I       -0.41283536       3.67538093       4.02891437
I        2.74060746       0.87791310       1.36993557
I        2.05162812       5.36283488       1.54864597
I        4.20673677       3.29124668      -2.42811067
11
Lattice="5.2815423011779785 0.0 4.138815879821777 2.0128294632192474 4.875067821633194 4.141408443450928 0.0 0.0 6.713741302490234" Properties=species:S:1:pos:R:3 pbc="T T T"
As       5.18958891       1.00829195       4.87342312
O        2.30761944       2.61253198       9.09891680
As       0.94310429       1.70131022       2.86616689
Mg       4.07307043       3.79249736       9.29827124
Tl       5.65211836       4.84899844      12.54500059
O        1.12569930       0.09917960       6.67163523
O        5.00795125       2.61143970       7.78221915
O        4.81150635       2.48248787      10.81164721
O        3.82561023       0.09759231       5.35620719
O        1.32341790       0.22917636       3.64513926
Tl       2.49410820       2.73743026       6.05239309
10
Lattice="5.912552833557129 0.0 3.415717124938965 1.9690889909422535 5.576327008735744 3.4133212566375732 0.0 0.0 6.827549457550049" Properties=species:S:1:pos:R:3 pbc="T T T"
K        4.85804144       1.86618137       5.47499140
Nd       2.88702171       4.65505134       8.88764428
F        2.76945065       0.38855397       5.47397447
Rb       2.88639403       0.47100835       2.05927460
F        5.90396520       0.38938549       3.66689778
F        3.81233322       3.34364853       7.28311547
F        6.94652129       3.34428104       5.47581140
Rb       6.82837040       3.26000238       8.88842184
F        5.90302327       0.38809126       7.28399072
F        3.81354445       3.34557764       3.66615197
6
Lattice="4.945433139801025 0.0 1.3957504034042358 2.1797426913294236 4.242852163459049 1.3949711322784424 0.0 0.0 8.925107955932617" Properties=species:S:1:pos:R:3 pbc="T T T"
Cs       5.23457059       1.88489044       7.23379557
H        3.22269225       0.55715459       4.05008639
H        3.94318048       0.50616439       4.25020050
Cs       1.49569107       2.60162493       1.78588400
Cl       3.28382130       3.60882541       4.79312339
Cl       2.28788637       0.08887898       8.25617550
3
Lattice="3.846583604812622 0.0 2.2155489921569824 1.2812555199730868 3.6261488681300995 2.2170214653015137 0.0 0.0 4.439948558807373" Properties=species:S:1:pos:R:3 pbc="T T T"
Ba       1.91127920       1.01806401       2.09079035
F        0.62322261       0.10976474       4.30192077
F        3.18781242       1.92453931       4.30028696
