data_image0
_chemical_formula_structural       ClO2NaO2ClONaO3
_chemical_formula_sum              "Cl2 O8 Na2"
_cell_length_a       5.536347929137984
_cell_length_b       5.538739195094083
_cell_length_c       6.740535736083984
_cell_angle_alpha    103.41255366405251
_cell_angle_beta     89.94111261570409
_cell_angle_gamma    119.95085299012938

_space_group_name_H-M_alt    "P 1"
_space_group_IT_number       1

loop_
  _space_group_symop_operation_xyz
  'x, y, z'

loop_
  _atom_site_type_symbol
  _atom_site_label
  _atom_site_symmetry_multiplicity
  _atom_site_fract_x
  _atom_site_fract_y
  _atom_site_fract_z
  _atom_site_occupancy
  Cl  Cl1       1.0  0.0014532391214742955  0.23439750075340268  0.2023201882839203  1.0000
  O   O1        1.0  0.5673308372497559  0.36749187111854553  0.6893141865730287  1.0000
  O   O2        1.0  0.8429828882217407  0.918260395526886  0.11893592774868011  1.0000
  Na  Na1       1.0  0.20459225773811332  0.6420649290084838  0.9039833545684814  1.0000
  O   O3        1.0  0.13091279566287994  0.9272908568382263  0.6822674870491028  1.0000
  O   O4        1.0  0.2786853313446045  0.3575514853000641  0.12636415660381317  1.0000
  Cl  Cl2       1.0  0.40862661600112915  0.05121286958456039  0.6065306067466736  1.0000
  O   O5        1.0  0.36861374974250793  0.9710952639579773  0.38287198543548584  1.0000
  Na  Na2       1.0  0.7049804329872131  0.6425508856773376  0.4037820100784302  1.0000
  O   O6        1.0  0.5628325939178466  0.927723467350006  0.6815180778503418  1.0000
  O   O7        1.0  0.0409990474581718  0.3142027556896209  0.4253741204738617  1.0000
  O   O8        1.0  0.8473480939865112  0.3579052984714508  0.1264786720275879  1.0000
