data_image0
_chemical_formula_structural       Na8SOSONa2O2Na2
_chemical_formula_sum              "Na12 S2 O4"
_cell_length_a       6.027654707084481
_cell_length_b       6.109293582259207
_cell_length_c       9.42481517791748
_cell_angle_alpha    90.02535616921989
_cell_angle_beta     71.43842944465753
_cell_angle_gamma    89.8584673172054

_space_group_name_H-M_alt    "P 1"
_space_group_IT_number       1

loop_
  _space_group_symop_operation_xyz
  'x, y, z'

loop_
  _atom_site_type_symbol
  _atom_site_label
  _atom_site_symmetry_multiplicity
  _atom_site_fract_x
  _atom_site_fract_y
  _atom_site_fract_z
  _atom_site_occupancy
  Na  Na1       1.0  0.47004708647727966  0.18621064722537992  0.6308264136314392  1.0000
  Na  Na2       1.0  0.5791400074958801  0.7587673664093018  0.34657585620880127  1.0000
  Na  Na3       1.0  0.07491398602724075  0.8097254037857056  0.6707731485366821  1.0000
  Na  Na4       1.0  0.08485312759876251  0.19543655216693878  0.3252921402454376  1.0000
  Na  Na5       1.0  0.41232025623321533  0.30934083461761475  0.0012566279619932175  1.0000
  Na  Na6       1.0  0.5751866102218628  0.64482182264328  0.6708002686500549  1.0000
  Na  Na7       1.0  0.07845138758420944  0.6951179504394531  0.34698835015296936  1.0000
  Na  Na8       1.0  0.9127375483512878  0.1451711356639862  0.00045943260192868736  1.0000
  S   S1        1.0  0.6522582769393921  0.976764976978302  0.8364735245704652  1.0000
  O   O1        1.0  0.9266207218170166  0.939581573009491  0.19219101965427401  1.0000
  S   S2        1.0  0.15270105004310608  0.4764992594718933  0.8355766534805298  1.0000
  O   O2        1.0  0.7829530239105225  0.44036656618118286  0.4794345498085022  1.0000
  Na  Na9       1.0  0.9697924852371216  0.2668563723564148  0.6310914754867554  1.0000
  Na  Na10      1.0  0.7663556933403015  0.6873491406440734  0.040664222091436386  1.0000
  O   O3        1.0  0.42708590626716614  0.5142945051193237  0.19179128110408786  1.0000
  O   O4        1.0  0.28291305899620056  0.013216303661465645  0.4803217351436615  1.0000
  Na  Na11      1.0  0.2672235071659088  0.7668924927711487  0.04107153415679933  1.0000
  Na  Na12      1.0  0.5848511457443237  0.2598854899406433  0.3255304992198944  1.0000
