# generated using pymatgen
data_MnZn3(FeO2)8
_symmetry_space_group_name_H-M   'P 1'
_cell_length_a   16.39335608
_cell_length_b   16.39334767
_cell_length_c   16.39333393
_cell_angle_alpha   89.99974240
_cell_angle_beta   89.99989684
_cell_angle_gamma   89.99971766
_symmetry_Int_Tables_number   1
_chemical_formula_structural   MnZn3(FeO2)8
_chemical_formula_sum   'Mn16 Zn48 Fe128 O256'
_cell_volume   4405.57710966
_cell_formula_units_Z   16
loop_
 _symmetry_equiv_pos_site_id
 _symmetry_equiv_pos_as_xyz
  1  'x, y, z'
loop_
 _atom_site_type_symbol
 _atom_site_label
 _atom_site_symmetry_multiplicity
 _atom_site_fract_x
 _atom_site_fract_y
 _atom_site_fract_z
 _atom_site_occupancy
  Fe  Fe0  1  0.18742062  0.68766685  0.81247639  1
  Fe  Fe1  1  0.68716608  0.68802443  0.81260368  1
  Fe  Fe2  1  0.18779055  0.18788009  0.81288628  1
  Fe  Fe3  1  0.68702614  0.18686629  0.81236618  1
  Fe  Fe4  1  0.18754982  0.68732721  0.31250671  1
  Fe  Fe5  1  0.68755369  0.68754543  0.31258290  1
  Fe  Fe6  1  0.18785049  0.18702584  0.31207919  1
  Fe  Fe7  1  0.68797212  0.18745684  0.31243725  1
  Fe  Fe8  1  0.18786995  0.06208102  0.43676202  1
  Fe  Fe9  1  0.68784447  0.06276692  0.43713380  1
  Fe  Fe10  1  0.18773198  0.56221736  0.43762546  1
  Fe  Fe11  1  0.68780141  0.56228462  0.43706433  1
  Fe  Fe12  1  0.18752840  0.06259913  0.93740144  1
  Fe  Fe13  1  0.68756288  0.06260673  0.93744652  1
  Fe  Fe14  1  0.18746524  0.56256983  0.93751434  1
  Fe  Fe15  1  0.68807611  0.56234124  0.93831305  1
  Fe  Fe16  1  0.06291808  0.06221523  0.31214295  1
  Fe  Fe17  1  0.56275045  0.06195490  0.31193699  1
  Fe  Fe18  1  0.06229711  0.56236800  0.31220716  1
  Fe  Fe19  1  0.56249202  0.56243182  0.31261722  1
  Fe  Fe20  1  0.06297303  0.06241241  0.81314170  1
  Fe  Fe21  1  0.56254044  0.06265699  0.81197764  1
  Fe  Fe22  1  0.06221335  0.56231468  0.81223134  1
  Fe  Fe23  1  0.56184524  0.56318339  0.81264060  1
  Fe  Fe24  1  0.43759265  0.18816186  0.06184928  1
  Fe  Fe25  1  0.93756082  0.18694829  0.06256771  1
  Fe  Fe26  1  0.43748915  0.68793597  0.06254373  1
  Fe  Fe27  1  0.93790893  0.68740454  0.06258104  1
  Fe  Fe28  1  0.43797155  0.18749253  0.56250013  1
  Fe  Fe29  1  0.93685469  0.18760050  0.56246848  1
  Fe  Fe30  1  0.43705316  0.68742767  0.56247184  1
  Fe  Fe31  1  0.93725648  0.68747972  0.56275785  1
  Fe  Fe32  1  0.81231065  0.18694482  0.68706645  1
  Fe  Fe33  1  0.31302048  0.18687950  0.68790114  1
  Fe  Fe34  1  0.81290483  0.68812532  0.68754650  1
  Fe  Fe35  1  0.31248032  0.68754942  0.68749980  1
  Fe  Fe36  1  0.81187662  0.18701523  0.18753649  1
  Fe  Fe37  1  0.31212384  0.18711914  0.18734792  1
  Fe  Fe38  1  0.81258808  0.68748213  0.18797427  1
  Fe  Fe39  1  0.31282463  0.68725028  0.18726786  1
  Fe  Fe40  1  0.81186036  0.06264520  0.56258088  1
  Fe  Fe41  1  0.31242674  0.06189212  0.56255861  1
  Fe  Fe42  1  0.81299675  0.56303548  0.56197224  1
  Fe  Fe43  1  0.31254051  0.56293227  0.56243145  1
  Fe  Fe44  1  0.81272266  0.06258722  0.06315457  1
  Fe  Fe45  1  0.31230913  0.06272391  0.06277158  1
  Fe  Fe46  1  0.81230829  0.56231731  0.06235314  1
  Fe  Fe47  1  0.31200303  0.56254279  0.06253597  1
  Fe  Fe48  1  0.06287802  0.31232066  0.06181660  1
  Fe  Fe49  1  0.56261967  0.31194869  0.06242925  1
  Fe  Fe50  1  0.06251625  0.81252498  0.06259340  1
  Fe  Fe51  1  0.56211964  0.81198115  0.06262050  1
  Fe  Fe52  1  0.06240658  0.31318646  0.56233269  1
  Fe  Fe53  1  0.56316350  0.31252475  0.56260382  1
  Fe  Fe54  1  0.06250631  0.81208113  0.56258768  1
  Fe  Fe55  1  0.56251718  0.81243182  0.56252099  1
  Fe  Fe56  1  0.68712009  0.31154729  0.68719589  1
  Fe  Fe57  1  0.18703786  0.31303577  0.68798562  1
  Fe  Fe58  1  0.68730659  0.81311409  0.68738274  1
  Fe  Fe59  1  0.18732106  0.81287060  0.68735119  1
  Fe  Fe60  1  0.68728605  0.31260835  0.18736073  1
  Fe  Fe61  1  0.18803084  0.31240806  0.18752396  1
  Fe  Fe62  1  0.68737470  0.81279511  0.18784079  1
  Fe  Fe63  1  0.18759461  0.81239911  0.18749900  1
  Fe  Fe64  1  0.56252230  0.43699452  0.68699861  1
  Fe  Fe65  1  0.06315615  0.43743517  0.68731825  1
  Fe  Fe66  1  0.56243512  0.93741384  0.68796367  1
  Fe  Fe67  1  0.06221171  0.93726497  0.68827814  1
  Fe  Fe68  1  0.56258513  0.43784902  0.18808938  1
  Fe  Fe69  1  0.06294347  0.43797194  0.18746308  1
  Fe  Fe70  1  0.56285764  0.93712116  0.18779272  1
  Fe  Fe71  1  0.06260168  0.93753871  0.18761099  1
  Fe  Fe72  1  0.93809093  0.43751327  0.81309769  1
  Fe  Fe73  1  0.43700705  0.43776230  0.81247413  1
  Fe  Fe74  1  0.93748596  0.93693890  0.81243511  1
  Fe  Fe75  1  0.43744712  0.93755159  0.81196788  1
  Fe  Fe76  1  0.93737619  0.43802879  0.31306613  1
  Fe  Fe77  1  0.43713092  0.43770971  0.31266163  1
  Fe  Fe78  1  0.93751548  0.93757793  0.31207019  1
  Fe  Fe79  1  0.43752894  0.93728052  0.31203725  1
  Fe  Fe80  1  0.93741822  0.81213837  0.43741711  1
  Fe  Fe81  1  0.43759140  0.81184047  0.43765566  1
  Fe  Fe82  1  0.93758617  0.31249089  0.43771144  1
  Fe  Fe83  1  0.43792807  0.31253398  0.43750907  1
  Fe  Fe84  1  0.93788917  0.81268658  0.93733898  1
  Fe  Fe85  1  0.43747838  0.81197903  0.93742673  1
  Fe  Fe86  1  0.93751912  0.31321396  0.93685433  1
  Fe  Fe87  1  0.43705930  0.31195260  0.93742779  1
  Fe  Fe88  1  0.81198735  0.93754041  0.43742152  1
  Fe  Fe89  1  0.31183024  0.93754492  0.43761813  1
  Fe  Fe90  1  0.81249940  0.43758387  0.43690368  1
  Fe  Fe91  1  0.31266800  0.43775526  0.43672626  1
  Fe  Fe92  1  0.81258089  0.93756187  0.93740903  1
  Fe  Fe93  1  0.31212735  0.93741653  0.93751947  1
  Fe  Fe94  1  0.81314642  0.43760331  0.93772192  1
  Fe  Fe95  1  0.31198905  0.43738174  0.93735561  1
  Fe  Fe96  1  0.43708637  0.56282958  0.68787011  1
  Fe  Fe97  1  0.93807772  0.56300821  0.68750406  1
  Fe  Fe98  1  0.43712389  0.06267103  0.68780089  1
  Fe  Fe99  1  0.93690532  0.06248396  0.68748562  1
  Fe  Fe100  1  0.43744166  0.56242184  0.18803198  1
  Fe  Fe101  1  0.93732415  0.56327812  0.18735121  1
  Fe  Fe102  1  0.43743899  0.06187965  0.18795569  1
  Fe  Fe103  1  0.93741430  0.06201593  0.18747232  1
  Fe  Fe104  1  0.68701495  0.43693556  0.56191411  1
  Fe  Fe105  1  0.18700033  0.43806858  0.56242803  1
  Fe  Fe106  1  0.68799269  0.93734585  0.56251809  1
  Fe  Fe107  1  0.18793620  0.93703425  0.56249031  1
  Fe  Fe108  1  0.68737544  0.43737523  0.06331535  1
  Fe  Fe109  1  0.18734154  0.43724537  0.06273509  1
  Fe  Fe110  1  0.68831561  0.93822651  0.06239424  1
  Fe  Fe111  1  0.18760845  0.93744427  0.06252841  1
  Fe  Fe112  1  0.56255359  0.68746699  0.43701774  1
  Fe  Fe113  1  0.06253935  0.68751538  0.43749533  1
  Fe  Fe114  1  0.56243075  0.18809113  0.43801739  1
  Fe  Fe115  1  0.06190784  0.18815758  0.43768100  1
  Fe  Fe116  1  0.56216606  0.68796661  0.93717226  1
  Fe  Fe117  1  0.06243831  0.68754355  0.93749416  1
  Fe  Fe118  1  0.56260430  0.18740140  0.93747263  1
  Fe  Fe119  1  0.06289933  0.18779928  0.93759925  1
  Fe  Fe120  1  0.81279880  0.81277836  0.31257656  1
  Fe  Fe121  1  0.31286396  0.81263344  0.31281908  1
  Fe  Fe122  1  0.81189804  0.31252999  0.31302359  1
  Fe  Fe123  1  0.31189710  0.31249844  0.31189662  1
  Fe  Fe124  1  0.81230260  0.81235975  0.81177119  1
  Fe  Fe125  1  0.31261290  0.81275608  0.81274169  1
  Fe  Fe126  1  0.81292891  0.31255961  0.81307309  1
  Fe  Fe127  1  0.31248025  0.31245118  0.81301781  1
  Mn  Mn128  1  0.50026425  0.49996571  0.99987557  1
  Mn  Mn129  1  0.49987279  0.99971880  1.00032418  1
  Mn  Mn130  1  1.00047901  1.00018286  0.49996056  1
  Mn  Mn131  1  0.50010333  0.99997656  0.49967000  1
  Mn  Mn132  1  0.99996810  0.25025928  0.24983789  1
  Mn  Mn133  1  0.49982131  0.24961470  0.25007743  1
  Mn  Mn134  1  0.25003940  0.24980672  0.50014558  1
  Mn  Mn135  1  0.74985943  0.75014820  1.00011153  1
  Mn  Mn136  1  0.74960481  0.50031712  0.74992024  1
  Mn  Mn137  1  0.12488889  0.12503292  0.62490168  1
  Mn  Mn138  1  0.62519576  0.62446526  0.62514396  1
  Mn  Mn139  1  0.62512743  0.37557276  0.87457499  1
  Mn  Mn140  1  0.87518847  0.12525776  0.87481199  1
  Mn  Mn141  1  0.87571358  0.37453507  0.12542403  1
  Mn  Mn142  1  0.87432688  0.37544310  0.62554342  1
  Mn  Mn143  1  0.37448886  0.37490669  0.62497976  1
  O  O144  1  0.44422198  0.30626725  0.05575723  1
  O  O145  1  0.94373758  0.30601715  0.05602326  1
  O  O146  1  0.44391625  0.80615953  0.05593457  1
  O  O147  1  0.94406838  0.80584266  0.05580560  1
  O  O148  1  0.44375110  0.30635052  0.55637709  1
  O  O149  1  0.94350687  0.30656283  0.55661700  1
  O  O150  1  0.44422034  0.80579364  0.55611070  1
  O  O151  1  0.94411330  0.80598879  0.55583489  1
  O  O152  1  0.05573249  0.44387555  0.30573676  1
  O  O153  1  0.55570262  0.44399513  0.30615893  1
  O  O154  1  0.05598172  0.94398241  0.30605926  1
  O  O155  1  0.55602539  0.94378572  0.30607714  1
  O  O156  1  0.05616050  0.44393906  0.80579937  1
  O  O157  1  0.55601092  0.44398160  0.80593278  1
  O  O158  1  0.05596491  0.94415709  0.80639949  1
  O  O159  1  0.55589979  0.94409558  0.80614659  1
  O  O160  1  0.30596950  0.05599837  0.44415854  1
  O  O161  1  0.80608016  0.05601568  0.44402298  1
  O  O162  1  0.30617338  0.55591986  0.44404839  1
  O  O163  1  0.80613919  0.55604932  0.44391776  1
  O  O164  1  0.30596666  0.05583327  0.94427937  1
  O  O165  1  0.80649966  0.05646709  0.94376250  1
  O  O166  1  0.30587159  0.55585608  0.94412602  1
  O  O167  1  0.80621735  0.55583445  0.94405904  1
  O  O168  1  0.19388981  0.19391210  0.19386143  1
  O  O169  1  0.69377694  0.19414642  0.19391604  1
  O  O170  1  0.19426322  0.69397540  0.19406429  1
  O  O171  1  0.69410997  0.69426502  0.19408811  1
  O  O172  1  0.19397778  0.19398675  0.69369424  1
  O  O173  1  0.69394684  0.19351241  0.69402554  1
  O  O174  1  0.19405564  0.69432981  0.69410631  1
  O  O175  1  0.69371676  0.69387651  0.69367901  1
  O  O176  1  0.18110445  0.06879434  0.31869880  1
  O  O177  1  0.68092516  0.06903543  0.31882667  1
  O  O178  1  0.18080156  0.56902258  0.31912004  1
  O  O179  1  0.68098552  0.56908621  0.31892269  1
  O  O180  1  0.18110928  0.06930735  0.81898885  1
  O  O181  1  0.68090296  0.06873256  0.81913788  1
  O  O182  1  0.18077117  0.56921681  0.81909151  1
  O  O183  1  0.68099533  0.56900525  0.81933820  1
  O  O184  1  0.31929756  0.18097042  0.06898735  1
  O  O185  1  0.81924029  0.18104931  0.06923387  1
  O  O186  1  0.31911447  0.68085972  0.06886532  1
  O  O187  1  0.81875605  0.68136353  0.06880626  1
  O  O188  1  0.31891393  0.18094765  0.56872278  1
  O  O189  1  0.81878132  0.18097833  0.56884960  1
  O  O190  1  0.31884702  0.68111968  0.56901984  1
  O  O191  1  0.81879123  0.68109416  0.56922229  1
  O  O192  1  0.43097192  0.43074040  0.43104882  1
  O  O193  1  0.93101145  0.43092067  0.43110557  1
  O  O194  1  0.43112882  0.93101201  0.43120369  1
  O  O195  1  0.93116098  0.93130390  0.43126773  1
  O  O196  1  0.43114645  0.43119172  0.93136277  1
  O  O197  1  0.93128223  0.43137999  0.93125800  1
  O  O198  1  0.43123574  0.93119960  0.93110950  1
  O  O199  1  0.93085749  0.93096680  0.93098073  1
  O  O200  1  0.06884502  0.31883992  0.18106026  1
  O  O201  1  0.56839444  0.31870569  0.18139722  1
  O  O202  1  0.06923038  0.81910212  0.18097720  1
  O  O203  1  0.56907288  0.81881343  0.18085819  1
  O  O204  1  0.06897314  0.31898612  0.68076709  1
  O  O205  1  0.56903788  0.31891596  0.68105070  1
  O  O206  1  0.06885071  0.81910634  0.68091779  1
  O  O207  1  0.56884744  0.81908915  0.68078033  1
  O  O208  1  0.18097757  0.31881618  0.06917358  1
  O  O209  1  0.68083097  0.31895312  0.06906072  1
  O  O210  1  0.18094807  0.81904389  0.06912876  1
  O  O211  1  0.68122468  0.81905063  0.06867968  1
  O  O212  1  0.18128103  0.31892663  0.56878234  1
  O  O213  1  0.68134080  0.31887857  0.56903759  1
  O  O214  1  0.18084539  0.81894307  0.56888668  1
  O  O215  1  0.68080611  0.81903271  0.56890547  1
  O  O216  1  0.06871496  0.18128406  0.31877205  1
  O  O217  1  0.56873019  0.18105482  0.31885225  1
  O  O218  1  0.06916177  0.68086420  0.31905521  1
  O  O219  1  0.56912385  0.68089232  0.31891001  1
  O  O220  1  0.06926327  0.18092965  0.81913149  1
  O  O221  1  0.56877499  0.18102054  0.81911498  1
  O  O222  1  0.06905815  0.68083567  0.81908918  1
  O  O223  1  0.56898251  0.68120855  0.81894008  1
  O  O224  1  0.31923393  0.06874869  0.18106070  1
  O  O225  1  0.81907000  0.06889554  0.18136177  1
  O  O226  1  0.31912432  0.56888142  0.18083263  1
  O  O227  1  0.81893704  0.56923430  0.18076581  1
  O  O228  1  0.31877436  0.06878965  0.68077764  1
  O  O229  1  0.81883181  0.06874093  0.68095925  1
  O  O230  1  0.31889237  0.56910290  0.68088230  1
  O  O231  1  0.81896632  0.56897483  0.68111452  1
  O  O232  1  0.44420565  0.05574852  0.30607258  1
  O  O233  1  0.94430474  0.05593530  0.30587496  1
  O  O234  1  0.44397202  0.55601469  0.30620306  1
  O  O235  1  0.94385109  0.55613603  0.30577886  1
  O  O236  1  0.44405420  0.05594115  0.80606808  1
  O  O237  1  0.94386690  0.05623368  0.80637129  1
  O  O238  1  0.44381365  0.55597669  0.80611938  1
  O  O239  1  0.94376097  0.55591539  0.80583683  1
  O  O240  1  0.30589225  0.44407531  0.05584437  1
  O  O241  1  0.80639427  0.44338017  0.05663027  1
  O  O242  1  0.30605215  0.94419524  0.05593711  1
  O  O243  1  0.80647558  0.94412784  0.05577763  1
  O  O244  1  0.30614222  0.44378090  0.55596281  1
  O  O245  1  0.80605786  0.44399217  0.55615522  1
  O  O246  1  0.30606576  0.94385183  0.55611332  1
  O  O247  1  0.80613360  0.94411992  0.55586698  1
  O  O248  1  0.05591614  0.30629830  0.44414958  1
  O  O249  1  0.55602218  0.30623879  0.44405152  1
  O  O250  1  0.05586433  0.80595738  0.44415591  1
  O  O251  1  0.55609427  0.80581096  0.44422300  1
  O  O252  1  0.05588151  0.30615609  0.94372846  1
  O  O253  1  0.55629652  0.30636260  0.94353606  1
  O  O254  1  0.05606616  0.80596140  0.94407524  1
  O  O255  1  0.55588780  0.80610512  0.94411664  1
  O  O256  1  0.05576285  0.19402607  0.05601573  1
  O  O257  1  0.55607601  0.19390240  0.05578579  1
  O  O258  1  0.05608880  0.69402685  0.05593120  1
  O  O259  1  0.55591464  0.69390167  0.05578722  1
  O  O260  1  0.05599051  0.19409861  0.55652780  1
  O  O261  1  0.55604153  0.19398891  0.55619404  1
  O  O262  1  0.05585212  0.69397048  0.55593928  1
  O  O263  1  0.55629367  0.69355689  0.55625627  1
  O  O264  1  0.30622476  0.30575016  0.19374452  1
  O  O265  1  0.80620634  0.30620413  0.19384875  1
  O  O266  1  0.30606755  0.80581116  0.19421646  1
  O  O267  1  0.80586711  0.80593458  0.19408888  1
  O  O268  1  0.30605674  0.30595822  0.69377295  1
  O  O269  1  0.80615956  0.30608520  0.69408748  1
  O  O270  1  0.30585346  0.80603342  0.69421576  1
  O  O271  1  0.80579772  0.80624900  0.69354619  1
  O  O272  1  0.19428492  0.44377815  0.44408722  1
  O  O273  1  0.69403296  0.44391041  0.44386036  1
  O  O274  1  0.19362500  0.94393255  0.44413567  1
  O  O275  1  0.69386611  0.94422130  0.44400329  1
  O  O276  1  0.19388895  0.44414080  0.94418016  1
  O  O277  1  0.69399906  0.44345645  0.94417399  1
  O  O278  1  0.19395427  0.94406928  0.94406149  1
  O  O279  1  0.69431718  0.94431240  0.94390401  1
  O  O280  1  0.31879291  0.43078750  0.31862694  1
  O  O281  1  0.81911295  0.43087404  0.31869886  1
  O  O282  1  0.31920475  0.93096619  0.31919284  1
  O  O283  1  0.81921484  0.93115765  0.31913833  1
  O  O284  1  0.31890740  0.43101931  0.81905280  1
  O  O285  1  0.81890565  0.43140264  0.81878865  1
  O  O286  1  0.31909616  0.93118515  0.81920102  1
  O  O287  1  0.81899331  0.93074838  0.81916939  1
  O  O288  1  0.43134710  0.18096280  0.18103343  1
  O  O289  1  0.93108384  0.18122826  0.18141541  1
  O  O290  1  0.43116603  0.68075703  0.18090185  1
  O  O291  1  0.93093851  0.68144604  0.18095021  1
  O  O292  1  0.43111890  0.18106310  0.68073221  1
  O  O293  1  0.93080429  0.18073149  0.68076740  1
  O  O294  1  0.43089136  0.68104600  0.68092585  1
  O  O295  1  0.93103868  0.68115471  0.68121312  1
  O  O296  1  0.06882261  0.06912543  0.43119546  1
  O  O297  1  0.56869260  0.06892726  0.43100420  1
  O  O298  1  0.06918895  0.56908591  0.43074179  1
  O  O299  1  0.56928787  0.56903838  0.43104764  1
  O  O300  1  0.06907486  0.06924514  0.93118233  1
  O  O301  1  0.56861331  0.06851432  0.93124321  1
  O  O302  1  0.06904752  0.56910452  0.93079604  1
  O  O303  1  0.56904453  0.56888860  0.93145935  1
  O  O304  1  0.06888369  0.43066384  0.06924012  1
  O  O305  1  0.56845333  0.43103864  0.06895442  1
  O  O306  1  0.06918584  0.93094000  0.06914570  1
  O  O307  1  0.56916714  0.93105981  0.06860226  1
  O  O308  1  0.06887275  0.43124325  0.56885075  1
  O  O309  1  0.56897422  0.43102520  0.56893346  1
  O  O310  1  0.06877019  0.93122309  0.56901423  1
  O  O311  1  0.56876730  0.93132712  0.56876101  1
  O  O312  1  0.31884432  0.31864000  0.43101992  1
  O  O313  1  0.81918345  0.31909732  0.43107085  1
  O  O314  1  0.31923915  0.81910184  0.43117476  1
  O  O315  1  0.81909086  0.81917342  0.43105902  1
  O  O316  1  0.31885372  0.31904768  0.93124446  1
  O  O317  1  0.81911264  0.31927066  0.93105934  1
  O  O318  1  0.31910339  0.81912583  0.93116140  1
  O  O319  1  0.81873474  0.81864829  0.93110153  1
  O  O320  1  0.30606449  0.19394507  0.30585116  1
  O  O321  1  0.80624708  0.19412820  0.30588012  1
  O  O322  1  0.30597009  0.69411404  0.30580520  1
  O  O323  1  0.80602568  0.69421503  0.30613586  1
  O  O324  1  0.30614776  0.19398869  0.80602616  1
  O  O325  1  0.80617560  0.19371778  0.80626671  1
  O  O326  1  0.30585135  0.69424535  0.80598613  1
  O  O327  1  0.80560435  0.69396919  0.80580037  1
  O  O328  1  0.05593971  0.05598514  0.19396239  1
  O  O329  1  0.55591304  0.05565109  0.19389031  1
  O  O330  1  0.05579037  0.55607834  0.19376237  1
  O  O331  1  0.55592368  0.55607484  0.19407551  1
  O  O332  1  0.05600129  0.05636949  0.69403889  1
  O  O333  1  0.55571296  0.05582865  0.69382137  1
  O  O334  1  0.05611684  0.55592847  0.69380926  1
  O  O335  1  0.55617602  0.55599124  0.69376055  1
  O  O336  1  0.19382724  0.30566737  0.30590613  1
  O  O337  1  0.69382817  0.30595608  0.30574169  1
  O  O338  1  0.19427391  0.80581698  0.30596554  1
  O  O339  1  0.69419074  0.80606048  0.30609253  1
  O  O340  1  0.19407737  0.30618667  0.80604199  1
  O  O341  1  0.69395150  0.30604255  0.80628266  1
  O  O342  1  0.19413993  0.80603829  0.80588078  1
  O  O343  1  0.69378746  0.80611453  0.80583706  1
  O  O344  1  0.44399037  0.19423966  0.44420126  1
  O  O345  1  0.94375090  0.19415513  0.44424502  1
  O  O346  1  0.44415694  0.69360920  0.44408834  1
  O  O347  1  0.94409887  0.69399698  0.44415105  1
  O  O348  1  0.44422004  0.19381378  0.94364539  1
  O  O349  1  0.94369743  0.19394458  0.94372674  1
  O  O350  1  0.44388723  0.69382396  0.94404468  1
  O  O351  1  0.94402011  0.69422272  0.94410815  1
  O  O352  1  0.43144902  0.06894774  0.06888448  1
  O  O353  1  0.93117252  0.06894196  0.06911379  1
  O  O354  1  0.43115264  0.56872925  0.06882850  1
  O  O355  1  0.93074094  0.56913772  0.06894028  1
  O  O356  1  0.43128705  0.06858734  0.56860178  1
  O  O357  1  0.93111009  0.06863199  0.56860649  1
  O  O358  1  0.43089708  0.56907146  0.56928501  1
  O  O359  1  0.93101176  0.56900529  0.56921244  1
  O  O360  1  0.18102047  0.43080593  0.18118378  1
  O  O361  1  0.68083113  0.43090643  0.18139879  1
  O  O362  1  0.18099617  0.93073989  0.18089080  1
  O  O363  1  0.68119607  0.93104335  0.18067328  1
  O  O364  1  0.18135729  0.43111509  0.68078013  1
  O  O365  1  0.68130465  0.43080262  0.68104736  1
  O  O366  1  0.18058452  0.93125922  0.68082544  1
  O  O367  1  0.68083171  0.93130894  0.68088583  1
  O  O368  1  0.43104738  0.31855306  0.31862919  1
  O  O369  1  0.93108046  0.31886526  0.31867360  1
  O  O370  1  0.43122745  0.81897337  0.31928790  1
  O  O371  1  0.93120369  0.81922225  0.31912317  1
  O  O372  1  0.43092327  0.31936830  0.81918211  1
  O  O373  1  0.93109577  0.31915994  0.81872816  1
  O  O374  1  0.43103986  0.81919410  0.81905896  1
  O  O375  1  0.93077495  0.81869202  0.81902761  1
  O  O376  1  0.19406707  0.05593212  0.05594293  1
  O  O377  1  0.69421074  0.05639551  0.05583999  1
  O  O378  1  0.19384116  0.55584797  0.05596272  1
  O  O379  1  0.69400012  0.55567441  0.05637393  1
  O  O380  1  0.19367164  0.05613170  0.55604785  1
  O  O381  1  0.69375016  0.05582450  0.55566553  1
  O  O382  1  0.19415255  0.55612822  0.55608068  1
  O  O383  1  0.69398105  0.55602861  0.55624384  1
  O  O384  1  0.44410246  0.44405183  0.19419612  1
  O  O385  1  0.94381871  0.44403638  0.19392688  1
  O  O386  1  0.44423571  0.94370127  0.19383310  1
  O  O387  1  0.94402783  0.94379258  0.19383768  1
  O  O388  1  0.44371249  0.44370005  0.69356931  1
  O  O389  1  0.94388983  0.44389637  0.69386540  1
  O  O390  1  0.44397369  0.94409617  0.69385135  1
  O  O391  1  0.94393655  0.94429621  0.69404497  1
  O  O392  1  0.18091744  0.18115574  0.43118768  1
  O  O393  1  0.68073917  0.18108873  0.43085467  1
  O  O394  1  0.18095325  0.68074301  0.43086631  1
  O  O395  1  0.68096968  0.68075083  0.43094921  1
  O  O396  1  0.18112688  0.18106124  0.93107092  1
  O  O397  1  0.68092517  0.18087183  0.93096910  1
  O  O398  1  0.18088312  0.68098561  0.93090928  1
  O  O399  1  0.68128748  0.68125452  0.93147944  1
  Zn  Zn400  1  1.00055905  0.50046970  1.00037375  1
  Zn  Zn401  1  1.00017455  0.99970630  1.00006092  1
  Zn  Zn402  1  1.00003089  0.50051718  0.49970208  1
  Zn  Zn403  1  0.49976908  0.50020205  0.49967564  1
  Zn  Zn404  1  1.00025390  0.75015597  0.25014443  1
  Zn  Zn405  1  0.49995339  0.74997090  0.24993431  1
  Zn  Zn406  1  1.00016913  0.24976674  0.74995240  1
  Zn  Zn407  1  0.49965068  0.24989423  0.75014163  1
  Zn  Zn408  1  1.00031416  0.75000252  0.75019102  1
  Zn  Zn409  1  0.49980765  0.75028265  0.74998290  1
  Zn  Zn410  1  0.74989393  0.24980698  0.49946611  1
  Zn  Zn411  1  0.24981647  0.75000498  0.49971097  1
  Zn  Zn412  1  0.74998133  0.75014674  0.49977412  1
  Zn  Zn413  1  0.25012712  0.24988296  1.00036953  1
  Zn  Zn414  1  0.74996968  0.24979614  1.00018325  1
  Zn  Zn415  1  0.24991384  0.74997997  1.00000754  1
  Zn  Zn416  1  0.25015055  0.99961446  0.24983764  1
  Zn  Zn417  1  0.74986207  0.99971854  0.25017750  1
  Zn  Zn418  1  0.24988544  0.50029094  0.24992521  1
  Zn  Zn419  1  0.75008030  0.50024244  0.24992370  1
  Zn  Zn420  1  0.24995550  0.99970980  0.75014029  1
  Zn  Zn421  1  0.74996394  0.99965292  0.75017764  1
  Zn  Zn422  1  0.24980797  0.50040928  0.75028510  1
  Zn  Zn423  1  0.62498177  0.12486095  0.12502617  1
  Zn  Zn424  1  0.12485811  0.12483100  0.12460026  1
  Zn  Zn425  1  0.62506554  0.62521341  0.12535553  1
  Zn  Zn426  1  0.12515483  0.62515952  0.12508460  1
  Zn  Zn427  1  0.62503049  0.12469607  0.62502754  1
  Zn  Zn428  1  0.12517608  0.62529373  0.62505125  1
  Zn  Zn429  1  0.62506174  0.87470922  0.37521464  1
  Zn  Zn430  1  0.12500997  0.87445362  0.37477245  1
  Zn  Zn431  1  0.62508649  0.37510843  0.37489257  1
  Zn  Zn432  1  0.12496716  0.37539112  0.37484201  1
  Zn  Zn433  1  0.62506869  0.87525520  0.87509317  1
  Zn  Zn434  1  0.12513251  0.87487854  0.87502856  1
  Zn  Zn435  1  0.12511564  0.37515094  0.87504770  1
  Zn  Zn436  1  0.37475079  0.62523672  0.37493365  1
  Zn  Zn437  1  0.87510644  0.62516236  0.37501846  1
  Zn  Zn438  1  0.37516274  0.12484425  0.37495132  1
  Zn  Zn439  1  0.87504980  0.12489462  0.37487223  1
  Zn  Zn440  1  0.37446282  0.62502632  0.87490875  1
  Zn  Zn441  1  0.87522973  0.62531148  0.87499573  1
  Zn  Zn442  1  0.37472534  0.12472019  0.87506246  1
  Zn  Zn443  1  0.37496679  0.37529195  0.12485465  1
  Zn  Zn444  1  0.87505073  0.87464287  0.12492383  1
  Zn  Zn445  1  0.37455045  0.87486875  0.12506721  1
  Zn  Zn446  1  0.87528292  0.87511794  0.62485774  1
  Zn  Zn447  1  0.37504745  0.87455461  0.62510479  1
