data_image0
_chemical_formula_structural       Cs2KF2YF4
_chemical_formula_sum              "Cs2 K1 F6 Y1"
_cell_length_a       6.738799116319731
_cell_length_b       6.744269435620728
_cell_length_c       6.7777299880981445
_cell_angle_alpha    119.68111614802703
_cell_angle_beta     119.71581379639821
_cell_angle_gamma    90.0031517178696

_space_group_name_H-M_alt    "P 1"
_space_group_IT_number       1

loop_
  _space_group_symop_operation_xyz
  'x, y, z'

loop_
  _atom_site_type_symbol
  _atom_site_label
  _atom_site_symmetry_multiplicity
  _atom_site_fract_x
  _atom_site_fract_y
  _atom_site_fract_z
  _atom_site_occupancy
  Cs  Cs1       1.0  0.8903296589851379  0.25176528096199036  0.6377039551734924  1.0000
  Cs  Cs2       1.0  0.3897768259048462  0.7491331100463866  0.6373450756072996  1.0000
  K   K1        1.0  0.14048370718955994  0.00026756321312859654  0.1375601440668106  1.0000
  F   F1        1.0  0.41056883335113525  0.28142815828323364  0.6852446794509888  1.0000
  F   F2        1.0  0.3687855899333954  0.31830894947052  0.1359326094388961  1.0000
  Y   Y1        1.0  0.6403481364250183  0.49995914101600647  0.13719724118709556  1.0000
  F   F3        1.0  0.8697502017021179  0.7196261286735535  0.5897880196571348  1.0000
  F   F4        1.0  0.9114106893539429  0.6822448372840881  0.1388313770294188  1.0000
  F   F5        1.0  0.463583379983902  0.7750391364097595  0.14621607959270477  1.0000
  F   F6        1.0  0.8166310787200928  0.22517156600952148  0.12845259904861442  1.0000
