data_image0
_chemical_formula_structural       SiO2TiOSiNaO4
_chemical_formula_sum              "Si2 O7 Ti1 Na1"
_cell_length_a       5.422389030224452
_cell_length_b       5.425137264898127
_cell_length_c       7.298484802246094
_cell_angle_alpha    68.33759750593883
_cell_angle_beta     68.32754584360126
_cell_angle_gamma    59.972557141454196

_space_group_name_H-M_alt    "P 1"
_space_group_IT_number       1

loop_
  _space_group_symop_operation_xyz
  'x, y, z'

loop_
  _atom_site_type_symbol
  _atom_site_label
  _atom_site_symmetry_multiplicity
  _atom_site_fract_x
  _atom_site_fract_y
  _atom_site_fract_z
  _atom_site_occupancy
  Si  Si1       1.0  0.7774574756622317  0.6761603355407714  0.5130161643028259  1.0000
  O   O1        1.0  0.5850207805633545  0.4832600951194763  0.6023896932601929  1.0000
  O   O2        1.0  0.13112202286720276  0.029300592839717865  0.9463490843772888  1.0000
  Ti  Ti1       1.0  0.3597736358642578  0.2588185369968414  0.7640841603279114  1.0000
  O   O3        1.0  0.5842828750610352  0.9712316989898682  0.6026866436004639  1.0000
  Si  Si2       1.0  0.9426771998405458  0.8402005434036255  0.020406585186719835  1.0000
  Na  Na1       1.0  0.6216086149215698  0.5197111368179321  0.980536162853241  1.0000
  O   O4        1.0  0.6401281356811523  0.029501169919967655  0.9440125823020935  1.0000
  O   O5        1.0  0.13160467147827148  0.5365127325057983  0.945273756980896  1.0000
  O   O6        1.0  0.8602480888366699  0.7578263282775879  0.2667616307735443  1.0000
  O   O7        1.0  0.07352504879236221  0.4821091592311859  0.6029613614082336  1.0000
