data_gen_0
_audit_creation_date              2025-10-09
_audit_creation_method            'Materials Studio'
_symmetry_space_group_name_H-M    ' '
_symmetry_Int_Tables_number       0
_symmetry_cell_setting            tetragonal
loop_
_symmetry_equiv_pos_as_xyz
  x,y,z
  y-z,x-z,-z
  y,y-z,-x+y
  x-z,x,x-y
  -x,-y,-z
  -y+z,-x+z,z
  -y,-y+z,x-y
  -x+z,-x,-x+y
_cell_length_a                    7.2270
_cell_length_b                    7.2270
_cell_length_c                    7.2270
_cell_angle_alpha                 119.9735
_cell_angle_beta                  119.9735
_cell_angle_gamma                 90.0460
loop_
_atom_site_label
_atom_site_type_symbol
_atom_site_fract_x
_atom_site_fract_y
_atom_site_fract_z
_atom_site_U_iso_or_equiv
_atom_site_adp_type
_atom_site_occupancy
Cs1    Cs   -0.25000   0.25000  -0.50000   0.00000  Uiso   1.00
K1     K     0.00000   0.00000   0.00000   0.00000  Uiso   1.00
F1     F     0.28290   0.28290  -0.00000   0.00000  Uiso   1.00
F2     F    -0.23925   0.33821   0.09896   0.00000  Uiso   1.00
Y1     Y    -0.50000   0.50000   0.00000   0.00000  Uiso   1.00
loop_
_geom_bond_atom_site_label_1
_geom_bond_atom_site_label_2
_geom_bond_distance
_geom_bond_site_symmetry_2
_ccdc_geom_bond_type
F1     Y1      2.218   1_655 S
F2     Y1      2.219   .     S
Y1     F2      2.219   2_465 S
Y1     F2      2.219   3_454 S
Y1     F2      2.219   4_566 S
Y1     F1      2.218   1_455 S
Y1     F1      2.218   5_565 S
