data_image0
_chemical_formula_structural       OCsClOH2CHOHO2
_chemical_formula_sum              "O5 Cs1 Cl1 H4 C1"
_cell_length_a       5.166058215162945
_cell_length_b       6.353838411571101
_cell_length_c       6.475501537322998
_cell_angle_alpha    85.55994241511705
_cell_angle_beta     92.23481998138854
_cell_angle_gamma    87.49671771830151

_space_group_name_H-M_alt    "P 1"
_space_group_IT_number       1

loop_
  _space_group_symop_operation_xyz
  'x, y, z'

loop_
  _atom_site_type_symbol
  _atom_site_label
  _atom_site_symmetry_multiplicity
  _atom_site_fract_x
  _atom_site_fract_y
  _atom_site_fract_z
  _atom_site_occupancy
  O   O1        1.0  0.9728184342384338  0.5905957221984863  0.2779380977153778  1.0000
  Cs  Cs1       1.0  0.5030592083930969  0.2276403307914734  0.4146784842014312  1.0000
  Cl  Cl1       1.0  0.5208446979522705  0.4727729260921478  0.9061255455017089  1.0000
  O   O2        1.0  0.2615239918231964  0.7478866577148438  0.4358911216259002  1.0000
  H   H1        1.0  0.1676120162010193  0.3614828884601593  0.7974642515182494  1.0000
  H   H2        1.0  0.5464500188827515  0.8043871521949767  0.9024161100387572  1.0000
  C   C1        1.0  0.06850340962409972  0.7618252038955688  0.3139174282550812  1.0000
  H   H3        1.0  0.7468738555908203  0.9419296383857727  0.008713899180293083  1.0000
  O   O3        1.0  0.9759817719459534  0.9375055432319641  0.22743707895278928  1.0000
  H   H4        1.0  0.8749977946281433  0.3640711009502411  0.7996559143066405  1.0000
  O   O4        1.0  0.01953976601362228  0.3044404089450836  0.7229132652282714  1.0000
  O   O5        1.0  0.5937372446060181  0.954928994178772  0.9072677493095397  1.0000
