data_image0
_chemical_formula_structural       Ta2NTaO2NO2TaN2
_chemical_formula_sum              "Ta4 N4 O4"
_cell_length_a       4.002796176692853
_cell_length_b       5.799127841789261
_cell_length_c       7.746809482574463
_cell_angle_alpha    109.48037691255593
_cell_angle_beta     89.9975709571206
_cell_angle_gamma    110.15454539713171

_space_group_name_H-M_alt    "P 1"
_space_group_IT_number       1

loop_
  _space_group_symop_operation_xyz
  'x, y, z'

loop_
  _atom_site_type_symbol
  _atom_site_label
  _atom_site_symmetry_multiplicity
  _atom_site_fract_x
  _atom_site_fract_y
  _atom_site_fract_z
  _atom_site_occupancy
  Ta  Ta1       1.0  0.2631231248378754  0.5459587574005128  0.6928960680961609  1.0000
  Ta  Ta2       1.0  0.2634621560573578  0.5452373027801514  0.19334894418716433  1.0000
  N   N1        1.0  0.7262259721755981  0.4743542671203614  0.67509526014328  1.0000
  Ta  Ta3       1.0  0.5316898226737976  0.08615440130233765  0.5784296989440918  1.0000
  O   O1        1.0  0.47578355669975286  0.9731564521789552  0.799968183040619  1.0000
  O   O2        1.0  0.4769311249256134  0.9731689095497131  0.299631804227829  1.0000
  N   N2        1.0  0.7268511652946472  0.4743484258651734  0.17504096031188965  1.0000
  O   O3        1.0  0.319167047739029  0.6577839851379396  0.9712351560592652  1.0000
  O   O4        1.0  0.3191856145858765  0.6585152149200441  0.4716970622539521  1.0000
  Ta  Ta4       1.0  0.5326012372970581  0.08422434329986572  0.07773013412952423  1.0000
  N   N3        1.0  0.06907785683870316  0.15552015602588654  0.09589406847953798  1.0000
  N   N4        1.0  0.06835128366947174  0.15686988830566406  0.5961294174194336  1.0000
